version 2
run General-0-20190522-19:21:44-4524
attr configname General
attr controllerServiceTimeFactor 1
attr datetime 20190522-19:21:44
attr experiment General
attr inifile Scenario_TestCase_HubAltered.ini
attr iterationvars $controllerServiceTimeFactor=1
attr iterationvars2 "$controllerServiceTimeFactor=1, $repetition=0"
attr measurement $controllerServiceTimeFactor=1
attr network openflow.networks.Scenario_TestCaseAltered
attr processid 4524
attr repetition 0
attr replication #0
attr resultdir results
attr runnumber 0
attr seedset 0

scalar . 	controllerServiceTimeFactor 	1
scalar Scenario_TestCaseAltered 	hackForCreateResultsFolder 	0
scalar Scenario_TestCaseAltered.server.ethg$o[0].channel 	packets:count 	861
attr interpolationmode  none
attr source  constant1(messageSent)
scalar Scenario_TestCaseAltered.open_flow_switch1.gateControlPlane$o[0].channel 	packets:count 	425
attr interpolationmode  none
attr source  constant1(messageSent)
scalar Scenario_TestCaseAltered.open_flow_switch1.gateDataPlane$o[0].channel 	packets:count 	456
attr interpolationmode  none
attr source  constant1(messageSent)
scalar Scenario_TestCaseAltered.open_flow_switch1.gateDataPlane$o[1].channel 	packets:count 	1
attr interpolationmode  none
attr source  constant1(messageSent)
scalar Scenario_TestCaseAltered.open_flow_switch1.gateDataPlane$o[2].channel 	packets:count 	861
attr interpolationmode  none
attr source  constant1(messageSent)
scalar Scenario_TestCaseAltered.open_flow_controller1.ethg$o[0].channel 	packets:count 	425
attr interpolationmode  none
attr source  constant1(messageSent)
scalar Scenario_TestCaseAltered.pgw.pppg$o[0].channel 	packets:count 	860
attr interpolationmode  none
attr source  constant1(messageSent)
scalar Scenario_TestCaseAltered.pgw.filterGate$o.channel 	packets:count 	605
attr interpolationmode  none
attr source  constant1(messageSent)
scalar Scenario_TestCaseAltered.eNodeB.ppp$o.channel 	packets:count 	605
attr interpolationmode  none
attr source  constant1(messageSent)
scalar Scenario_TestCaseAltered.clientG1[0].ethg$o[0].channel 	packets:count 	0
attr interpolationmode  none
attr source  constant1(messageSent)
scalar Scenario_TestCaseAltered.router.pppg$o[0].channel 	packets:count 	860
attr interpolationmode  none
attr source  constant1(messageSent)
scalar Scenario_TestCaseAltered.router.ethg$o[0].channel 	packets:count 	606
attr interpolationmode  none
attr source  constant1(messageSent)
scalar Scenario_TestCaseAltered.openflowGraphAnalyzer 	minPathLength 	2
scalar Scenario_TestCaseAltered.openflowGraphAnalyzer 	maxPathLength 	2
scalar Scenario_TestCaseAltered.openflowGraphAnalyzer 	avgPathLength 	2
scalar Scenario_TestCaseAltered.openflowGraphAnalyzer 	avgNumSwitchLinks 	2
scalar Scenario_TestCaseAltered.openflowGraphAnalyzer 	numClients 	2
scalar Scenario_TestCaseAltered.openflowGraphAnalyzer 	numSwitches 	1
scalar Scenario_TestCaseAltered.openflowGraphAnalyzer 	numPaths 	2
scalar Scenario_TestCaseAltered.openflowGraphAnalyzer 	nodeInNumPaths-Scenario_TestCaseAltered.open_flow_switch1 	2
scalar Scenario_TestCaseAltered.openflowGraphAnalyzer 	nodeInNumPaths-Scenario_TestCaseAltered.clientG1[0] 	2
scalar Scenario_TestCaseAltered.openflowGraphAnalyzer 	nodeInNumPaths-Scenario_TestCaseAltered.server 	2
scalar Scenario_TestCaseAltered.server.networkLayer.arp 	failedARPResolution:count 	0
attr title  "ARP failed resolutions, count"
scalar Scenario_TestCaseAltered.server.networkLayer.arp 	completedARPResolution:count 	1
attr title  "ARP completed resolutions, count"
scalar Scenario_TestCaseAltered.server.networkLayer.arp 	initiatedARPResolution:count 	0
attr title  "ARP initiated resolutions, count"
scalar Scenario_TestCaseAltered.server.networkLayer.arp 	sentReply:count 	1
attr title  "ARP replies sent, count"
scalar Scenario_TestCaseAltered.server.networkLayer.arp 	sentReq:count 	0
attr title  "ARP request sent, count"
scalar Scenario_TestCaseAltered.server.lo0.lo 	droppedPkBitError:count 	0
attr interpolationmode  none
attr source  dropPkBitError
attr title  "packets dropped/bit error, count"
scalar Scenario_TestCaseAltered.server.lo0.lo 	droppedPkBitError:sum(packetBytes) 	0
attr interpolationmode  none
attr source  dropPkBitError
attr title  "packets dropped/bit error, sum(packetBytes)"
scalar Scenario_TestCaseAltered.server.lo0.lo 	rcvdPkFromHL:count 	0
attr interpolationmode  none
attr source  packetReceivedFromUpper
attr title  "packets received from higher layer, count"
scalar Scenario_TestCaseAltered.server.lo0.lo 	rcvdPkFromHL:sum(packetBytes) 	0
attr interpolationmode  none
attr source  packetReceivedFromUpper
attr title  "packets received from higher layer, sum(packetBytes)"
scalar Scenario_TestCaseAltered.server.lo0.lo 	passedUpPk:count 	0
attr interpolationmode  none
attr source  packetSentToUpper
attr title  "packets passed to higher layer, count"
scalar Scenario_TestCaseAltered.server.lo0.lo 	passedUpPk:sum(packetBytes) 	0
attr interpolationmode  none
attr source  packetSentToUpper
attr title  "packets passed to higher layer, sum(packetBytes)"
scalar Scenario_TestCaseAltered.server.eth[0].mac 	"simulated time" 	14.999
scalar Scenario_TestCaseAltered.server.eth[0].mac 	full-duplex 	1
scalar Scenario_TestCaseAltered.server.eth[0].mac 	"frames/sec sent" 	57.403826921795
scalar Scenario_TestCaseAltered.server.eth[0].mac 	"frames/sec rcvd" 	30.402026801787
scalar Scenario_TestCaseAltered.server.eth[0].mac 	"bits/sec sent" 	45711.847456497
scalar Scenario_TestCaseAltered.server.eth[0].mac 	"bits/sec rcvd" 	31886.925795053
scalar Scenario_TestCaseAltered.server.eth[0].mac 	"rx channel idle (%)" 	99.966167344623
scalar Scenario_TestCaseAltered.server.eth[0].mac 	"rx channel utilization (%)" 	0.033832655377025
scalar Scenario_TestCaseAltered.server.eth[0].mac 	droppedPkNotForUs:count 	0
attr interpolationmode  none
attr source  dropPkNotForUs
attr title  "packets dropped/not for us, count"
scalar Scenario_TestCaseAltered.server.eth[0].mac 	droppedPkNotForUs:sum(packetBytes) 	0
attr interpolationmode  none
attr source  dropPkNotForUs
attr title  "packets dropped/not for us, sum(packetBytes)"
scalar Scenario_TestCaseAltered.server.eth[0].mac 	droppedPkIfaceDown:count 	0
attr interpolationmode  none
attr source  dropPkIfaceDown
attr title  "packets dropped/interface down, count"
scalar Scenario_TestCaseAltered.server.eth[0].mac 	droppedPkIfaceDown:sum(packetBytes) 	0
attr interpolationmode  none
attr source  dropPkIfaceDown
attr title  "packets dropped/interface down, sum(packetBytes)"
scalar Scenario_TestCaseAltered.server.eth[0].mac 	droppedPkBitError:count 	0
attr interpolationmode  none
attr source  dropPkBitError
attr title  "packets dropped/bit error, count"
scalar Scenario_TestCaseAltered.server.eth[0].mac 	droppedPkBitError:sum(packetBytes) 	0
attr interpolationmode  none
attr source  dropPkBitError
attr title  "packets dropped/bit error, sum(packetBytes)"
scalar Scenario_TestCaseAltered.server.eth[0].mac 	rxPkFromHL:count 	861
attr interpolationmode  none
attr source  rxPkFromHL
attr title  "packet bytes from higher layer, count"
scalar Scenario_TestCaseAltered.server.eth[0].mac 	rxPkFromHL:sum(packetBytes) 	85704
attr interpolationmode  none
attr source  rxPkFromHL
attr title  "packet bytes from higher layer, sum(packetBytes)"
scalar Scenario_TestCaseAltered.server.eth[0].mac 	rxPausePkUnits:count 	0
attr interpolationmode  none
attr title  "pause units received, count"
scalar Scenario_TestCaseAltered.server.eth[0].mac 	rxPausePkUnits:sum 	0
attr interpolationmode  none
attr title  "pause units received, sum"
scalar Scenario_TestCaseAltered.server.eth[0].mac 	txPausePkUnits:count 	0
attr interpolationmode  none
attr title  "pause units sent, count"
scalar Scenario_TestCaseAltered.server.eth[0].mac 	txPausePkUnits:sum 	0
attr interpolationmode  none
attr title  "pause units sent, sum"
scalar Scenario_TestCaseAltered.server.eth[0].mac 	rxPkOk:count 	456
attr interpolationmode  none
attr source  rxPkOk
attr title  "packets received OK, count"
scalar Scenario_TestCaseAltered.server.eth[0].mac 	rxPkOk:sum(packetBytes) 	59784
attr interpolationmode  none
attr source  rxPkOk
attr title  "packets received OK, sum(packetBytes)"
scalar Scenario_TestCaseAltered.server.eth[0].mac 	txPk:count 	861
attr interpolationmode  none
attr source  txPk
attr title  "packets transmitted, count"
scalar Scenario_TestCaseAltered.server.eth[0].mac 	txPk:sum(packetBytes) 	85704
attr interpolationmode  none
attr source  txPk
attr title  "packets transmitted, sum(packetBytes)"
scalar Scenario_TestCaseAltered.server.eth[0].mac 	passedUpPk:count 	456
attr interpolationmode  none
attr source  packetSentToUpper
attr title  "packets passed to higher layer, count"
scalar Scenario_TestCaseAltered.server.eth[0].mac 	passedUpPk:sum(packetBytes) 	59784
attr interpolationmode  none
attr source  packetSentToUpper
attr title  "packets passed to higher layer, sum(packetBytes)"
scalar Scenario_TestCaseAltered.server.eth[0].encap 	pauseSent:count 	0
attr title  "pause sent, count"
scalar Scenario_TestCaseAltered.server.eth[0].encap 	pauseSent:sum 	0
attr title  "pause sent, sum"
scalar Scenario_TestCaseAltered.server.eth[0].encap 	decapPk:count 	456
attr interpolationmode  none
attr source  decapPk
attr title  "packets decapsulated, count"
scalar Scenario_TestCaseAltered.server.eth[0].encap 	decapPk:sum(packetBytes) 	50288
attr interpolationmode  none
attr source  decapPk
attr title  "packets decapsulated, sum(packetBytes)"
scalar Scenario_TestCaseAltered.server.eth[0].encap 	encapPk:count 	861
attr interpolationmode  none
attr source  encapPk
attr title  "packets encapsulated, count"
scalar Scenario_TestCaseAltered.server.eth[0].encap 	encapPk:sum(packetBytes) 	68188
attr interpolationmode  none
attr source  encapPk
attr title  "packets encapsulated, sum(packetBytes)"
scalar Scenario_TestCaseAltered.server.tcpApp[0] 	bytesRcvd 	31080
scalar Scenario_TestCaseAltered.server.tcpApp[0] 	bytesSent 	31080
scalar Scenario_TestCaseAltered.server.tcpApp[0] 	rcvdPk:count 	80
attr interpolationmode  none
attr source  rcvdPk
attr title  "packets received, count"
scalar Scenario_TestCaseAltered.server.tcpApp[0] 	rcvdPk:sum(packetBytes) 	31080
attr interpolationmode  none
attr source  rcvdPk
attr title  "packets received, sum(packetBytes)"
statistic Scenario_TestCaseAltered.server.tcpApp[0] 	endToEndDelay:histogram
field count 80
field mean 0
field stddev 0
field sum 0
field sqrsum 0
field min 0
field max 0
attr interpolationmode  none
attr source  messageAge(rcvdPk)
attr title  "end-to-end delay, histogram"
attr unit  s
bin	-INF	0
bin	-0.5	0
bin	-0.46666666666667	0
bin	-0.43333333333333	0
bin	-0.4	0
bin	-0.36666666666667	0
bin	-0.33333333333333	0
bin	-0.3	0
bin	-0.26666666666667	0
bin	-0.23333333333333	0
bin	-0.2	0
bin	-0.16666666666667	0
bin	-0.13333333333333	0
bin	-0.1	0
bin	-0.066666666666667	0
bin	-0.033333333333333	0
bin	0	80
bin	0.033333333333333	0
bin	0.066666666666667	0
bin	0.1	0
bin	0.13333333333333	0
bin	0.16666666666667	0
bin	0.2	0
bin	0.23333333333333	0
bin	0.26666666666667	0
bin	0.3	0
bin	0.33333333333333	0
bin	0.36666666666667	0
bin	0.4	0
bin	0.43333333333333	0
bin	0.46666666666667	0
bin	0.5	0
scalar Scenario_TestCaseAltered.server.tcpApp[0] 	sentPk:count 	80
attr interpolationmode  none
attr source  sentPk
attr title  "packets sent, count"
scalar Scenario_TestCaseAltered.server.tcpApp[0] 	sentPk:sum(packetBytes) 	31080
attr interpolationmode  none
attr source  sentPk
attr title  "packets sent, sum(packetBytes)"
scalar Scenario_TestCaseAltered.open_flow_switch1.networkLayer.arp 	failedARPResolution:count 	0
attr title  "ARP failed resolutions, count"
scalar Scenario_TestCaseAltered.open_flow_switch1.networkLayer.arp 	completedARPResolution:count 	1
attr title  "ARP completed resolutions, count"
scalar Scenario_TestCaseAltered.open_flow_switch1.networkLayer.arp 	initiatedARPResolution:count 	1
attr title  "ARP initiated resolutions, count"
scalar Scenario_TestCaseAltered.open_flow_switch1.networkLayer.arp 	sentReply:count 	0
attr title  "ARP replies sent, count"
scalar Scenario_TestCaseAltered.open_flow_switch1.networkLayer.arp 	sentReq:count 	1
attr title  "ARP request sent, count"
scalar Scenario_TestCaseAltered.open_flow_switch1.eth[0].mac 	"simulated time" 	14.999
scalar Scenario_TestCaseAltered.open_flow_switch1.eth[0].mac 	full-duplex 	1
scalar Scenario_TestCaseAltered.open_flow_switch1.eth[0].mac 	"frames/sec sent" 	28.335222348157
scalar Scenario_TestCaseAltered.open_flow_switch1.eth[0].mac 	"frames/sec rcvd" 	28.335222348157
scalar Scenario_TestCaseAltered.open_flow_switch1.eth[0].mac 	"bits/sec sent" 	18586.839122608
scalar Scenario_TestCaseAltered.open_flow_switch1.eth[0].mac 	"bits/sec rcvd" 	24990.466031069
scalar Scenario_TestCaseAltered.open_flow_switch1.eth[0].mac 	"rx channel idle (%)" 	99.973196079739
scalar Scenario_TestCaseAltered.open_flow_switch1.eth[0].mac 	"rx channel utilization (%)" 	0.026803920261351
scalar Scenario_TestCaseAltered.open_flow_switch1.eth[0].mac 	droppedPkNotForUs:count 	0
attr interpolationmode  none
attr source  dropPkNotForUs
attr title  "packets dropped/not for us, count"
scalar Scenario_TestCaseAltered.open_flow_switch1.eth[0].mac 	droppedPkNotForUs:sum(packetBytes) 	0
attr interpolationmode  none
attr source  dropPkNotForUs
attr title  "packets dropped/not for us, sum(packetBytes)"
scalar Scenario_TestCaseAltered.open_flow_switch1.eth[0].mac 	droppedPkIfaceDown:count 	0
attr interpolationmode  none
attr source  dropPkIfaceDown
attr title  "packets dropped/interface down, count"
scalar Scenario_TestCaseAltered.open_flow_switch1.eth[0].mac 	droppedPkIfaceDown:sum(packetBytes) 	0
attr interpolationmode  none
attr source  dropPkIfaceDown
attr title  "packets dropped/interface down, sum(packetBytes)"
scalar Scenario_TestCaseAltered.open_flow_switch1.eth[0].mac 	droppedPkBitError:count 	0
attr interpolationmode  none
attr source  dropPkBitError
attr title  "packets dropped/bit error, count"
scalar Scenario_TestCaseAltered.open_flow_switch1.eth[0].mac 	droppedPkBitError:sum(packetBytes) 	0
attr interpolationmode  none
attr source  dropPkBitError
attr title  "packets dropped/bit error, sum(packetBytes)"
scalar Scenario_TestCaseAltered.open_flow_switch1.eth[0].mac 	rxPkFromHL:count 	425
attr interpolationmode  none
attr source  rxPkFromHL
attr title  "packet bytes from higher layer, count"
scalar Scenario_TestCaseAltered.open_flow_switch1.eth[0].mac 	rxPkFromHL:sum(packetBytes) 	34848
attr interpolationmode  none
attr source  rxPkFromHL
attr title  "packet bytes from higher layer, sum(packetBytes)"
scalar Scenario_TestCaseAltered.open_flow_switch1.eth[0].mac 	rxPausePkUnits:count 	0
attr interpolationmode  none
attr title  "pause units received, count"
scalar Scenario_TestCaseAltered.open_flow_switch1.eth[0].mac 	rxPausePkUnits:sum 	0
attr interpolationmode  none
attr title  "pause units received, sum"
scalar Scenario_TestCaseAltered.open_flow_switch1.eth[0].mac 	txPausePkUnits:count 	0
attr interpolationmode  none
attr title  "pause units sent, count"
scalar Scenario_TestCaseAltered.open_flow_switch1.eth[0].mac 	txPausePkUnits:sum 	0
attr interpolationmode  none
attr title  "pause units sent, sum"
scalar Scenario_TestCaseAltered.open_flow_switch1.eth[0].mac 	rxPkOk:count 	425
attr interpolationmode  none
attr source  rxPkOk
attr title  "packets received OK, count"
scalar Scenario_TestCaseAltered.open_flow_switch1.eth[0].mac 	rxPkOk:sum(packetBytes) 	46854
attr interpolationmode  none
attr source  rxPkOk
attr title  "packets received OK, sum(packetBytes)"
scalar Scenario_TestCaseAltered.open_flow_switch1.eth[0].mac 	txPk:count 	425
attr interpolationmode  none
attr source  txPk
attr title  "packets transmitted, count"
scalar Scenario_TestCaseAltered.open_flow_switch1.eth[0].mac 	txPk:sum(packetBytes) 	34848
attr interpolationmode  none
attr source  txPk
attr title  "packets transmitted, sum(packetBytes)"
scalar Scenario_TestCaseAltered.open_flow_switch1.eth[0].mac 	passedUpPk:count 	425
attr interpolationmode  none
attr source  packetSentToUpper
attr title  "packets passed to higher layer, count"
scalar Scenario_TestCaseAltered.open_flow_switch1.eth[0].mac 	passedUpPk:sum(packetBytes) 	46854
attr interpolationmode  none
attr source  packetSentToUpper
attr title  "packets passed to higher layer, sum(packetBytes)"
scalar Scenario_TestCaseAltered.open_flow_switch1.eth[0].encap 	pauseSent:count 	0
attr title  "pause sent, count"
scalar Scenario_TestCaseAltered.open_flow_switch1.eth[0].encap 	pauseSent:sum 	0
attr title  "pause sent, sum"
scalar Scenario_TestCaseAltered.open_flow_switch1.eth[0].encap 	decapPk:count 	425
attr interpolationmode  none
attr source  decapPk
attr title  "packets decapsulated, count"
scalar Scenario_TestCaseAltered.open_flow_switch1.eth[0].encap 	decapPk:sum(packetBytes) 	38152
attr interpolationmode  none
attr source  decapPk
attr title  "packets decapsulated, sum(packetBytes)"
scalar Scenario_TestCaseAltered.open_flow_switch1.eth[0].encap 	encapPk:count 	425
attr interpolationmode  none
attr source  encapPk
attr title  "packets encapsulated, count"
scalar Scenario_TestCaseAltered.open_flow_switch1.eth[0].encap 	encapPk:sum(packetBytes) 	25672
attr interpolationmode  none
attr source  encapPk
attr title  "packets encapsulated, sum(packetBytes)"
scalar Scenario_TestCaseAltered.open_flow_switch1.etherMAC[0].mac 	"simulated time" 	14.999
scalar Scenario_TestCaseAltered.open_flow_switch1.etherMAC[0].mac 	full-duplex 	1
scalar Scenario_TestCaseAltered.open_flow_switch1.etherMAC[0].mac 	"frames/sec sent" 	30.402026801787
scalar Scenario_TestCaseAltered.open_flow_switch1.etherMAC[0].mac 	"frames/sec rcvd" 	57.403826921795
scalar Scenario_TestCaseAltered.open_flow_switch1.etherMAC[0].mac 	"bits/sec sent" 	31886.925795053
scalar Scenario_TestCaseAltered.open_flow_switch1.etherMAC[0].mac 	"bits/sec rcvd" 	45711.847456497
scalar Scenario_TestCaseAltered.open_flow_switch1.etherMAC[0].mac 	"rx channel idle (%)" 	99.950614307754
scalar Scenario_TestCaseAltered.open_flow_switch1.etherMAC[0].mac 	"rx channel utilization (%)" 	0.04938569224615
scalar Scenario_TestCaseAltered.open_flow_switch1.etherMAC[0].mac 	"rx channel collision (%)" 	0
scalar Scenario_TestCaseAltered.open_flow_switch1.etherMAC[0].mac 	collisions 	0
scalar Scenario_TestCaseAltered.open_flow_switch1.etherMAC[0].mac 	backoffs 	0
scalar Scenario_TestCaseAltered.open_flow_switch1.etherMAC[0].mac 	droppedPkNotForUs:count 	0
attr interpolationmode  none
attr source  dropPkNotForUs
attr title  "packets dropped/not for us, count"
scalar Scenario_TestCaseAltered.open_flow_switch1.etherMAC[0].mac 	droppedPkNotForUs:sum(packetBytes) 	0
attr interpolationmode  none
attr source  dropPkNotForUs
attr title  "packets dropped/not for us, sum(packetBytes)"
scalar Scenario_TestCaseAltered.open_flow_switch1.etherMAC[0].mac 	droppedPkIfaceDown:count 	0
attr interpolationmode  none
attr source  dropPkIfaceDown
attr title  "packets dropped/interface down, count"
scalar Scenario_TestCaseAltered.open_flow_switch1.etherMAC[0].mac 	droppedPkIfaceDown:sum(packetBytes) 	0
attr interpolationmode  none
attr source  dropPkIfaceDown
attr title  "packets dropped/interface down, sum(packetBytes)"
scalar Scenario_TestCaseAltered.open_flow_switch1.etherMAC[0].mac 	droppedPkBitError:count 	0
attr interpolationmode  none
attr source  dropPkBitError
attr title  "packets dropped/bit error, count"
scalar Scenario_TestCaseAltered.open_flow_switch1.etherMAC[0].mac 	droppedPkBitError:sum(packetBytes) 	0
attr interpolationmode  none
attr source  dropPkBitError
attr title  "packets dropped/bit error, sum(packetBytes)"
scalar Scenario_TestCaseAltered.open_flow_switch1.etherMAC[0].mac 	rxPkFromHL:count 	456
attr interpolationmode  none
attr source  rxPkFromHL
attr title  "packet bytes from higher layer, count"
scalar Scenario_TestCaseAltered.open_flow_switch1.etherMAC[0].mac 	rxPkFromHL:sum(packetBytes) 	59784
attr interpolationmode  none
attr source  rxPkFromHL
attr title  "packet bytes from higher layer, sum(packetBytes)"
scalar Scenario_TestCaseAltered.open_flow_switch1.etherMAC[0].mac 	rxPausePkUnits:count 	0
attr interpolationmode  none
attr title  "pause units received, count"
scalar Scenario_TestCaseAltered.open_flow_switch1.etherMAC[0].mac 	rxPausePkUnits:sum 	0
attr interpolationmode  none
attr title  "pause units received, sum"
scalar Scenario_TestCaseAltered.open_flow_switch1.etherMAC[0].mac 	txPausePkUnits:count 	0
attr interpolationmode  none
attr title  "pause units sent, count"
scalar Scenario_TestCaseAltered.open_flow_switch1.etherMAC[0].mac 	txPausePkUnits:sum 	0
attr interpolationmode  none
attr title  "pause units sent, sum"
scalar Scenario_TestCaseAltered.open_flow_switch1.etherMAC[0].mac 	rxPkOk:count 	861
attr interpolationmode  none
attr source  rxPkOk
attr title  "packets received OK, count"
scalar Scenario_TestCaseAltered.open_flow_switch1.etherMAC[0].mac 	rxPkOk:sum(packetBytes) 	85704
attr interpolationmode  none
attr source  rxPkOk
attr title  "packets received OK, sum(packetBytes)"
scalar Scenario_TestCaseAltered.open_flow_switch1.etherMAC[0].mac 	txPk:count 	456
attr interpolationmode  none
attr source  txPk
attr title  "packets transmitted, count"
scalar Scenario_TestCaseAltered.open_flow_switch1.etherMAC[0].mac 	txPk:sum(packetBytes) 	59784
attr interpolationmode  none
attr source  txPk
attr title  "packets transmitted, sum(packetBytes)"
scalar Scenario_TestCaseAltered.open_flow_switch1.etherMAC[0].mac 	backoff:count 	0
attr interpolationmode  none
attr title  "backoff, count"
scalar Scenario_TestCaseAltered.open_flow_switch1.etherMAC[0].mac 	collision:count 	0
attr interpolationmode  none
attr title  "collision, count"
scalar Scenario_TestCaseAltered.open_flow_switch1.etherMAC[0].mac 	passedUpPk:count 	861
attr interpolationmode  none
attr source  packetSentToUpper
attr title  "packets passed to higher layer, count"
scalar Scenario_TestCaseAltered.open_flow_switch1.etherMAC[0].mac 	passedUpPk:sum(packetBytes) 	85704
attr interpolationmode  none
attr source  packetSentToUpper
attr title  "packets passed to higher layer, sum(packetBytes)"
scalar Scenario_TestCaseAltered.open_flow_switch1.etherMAC[1].mac 	"simulated time" 	14.999
scalar Scenario_TestCaseAltered.open_flow_switch1.etherMAC[1].mac 	full-duplex 	1
scalar Scenario_TestCaseAltered.open_flow_switch1.etherMAC[1].mac 	"frames/sec sent" 	0.066671111407427
scalar Scenario_TestCaseAltered.open_flow_switch1.etherMAC[1].mac 	"frames/sec rcvd" 	0
scalar Scenario_TestCaseAltered.open_flow_switch1.etherMAC[1].mac 	"bits/sec sent" 	34.135609040603
scalar Scenario_TestCaseAltered.open_flow_switch1.etherMAC[1].mac 	"bits/sec rcvd" 	0
scalar Scenario_TestCaseAltered.open_flow_switch1.etherMAC[1].mac 	"rx channel idle (%)" 	100
scalar Scenario_TestCaseAltered.open_flow_switch1.etherMAC[1].mac 	"rx channel utilization (%)" 	0
scalar Scenario_TestCaseAltered.open_flow_switch1.etherMAC[1].mac 	"rx channel collision (%)" 	0
scalar Scenario_TestCaseAltered.open_flow_switch1.etherMAC[1].mac 	collisions 	0
scalar Scenario_TestCaseAltered.open_flow_switch1.etherMAC[1].mac 	backoffs 	0
scalar Scenario_TestCaseAltered.open_flow_switch1.etherMAC[1].mac 	droppedPkNotForUs:count 	0
attr interpolationmode  none
attr source  dropPkNotForUs
attr title  "packets dropped/not for us, count"
scalar Scenario_TestCaseAltered.open_flow_switch1.etherMAC[1].mac 	droppedPkNotForUs:sum(packetBytes) 	0
attr interpolationmode  none
attr source  dropPkNotForUs
attr title  "packets dropped/not for us, sum(packetBytes)"
scalar Scenario_TestCaseAltered.open_flow_switch1.etherMAC[1].mac 	droppedPkIfaceDown:count 	0
attr interpolationmode  none
attr source  dropPkIfaceDown
attr title  "packets dropped/interface down, count"
scalar Scenario_TestCaseAltered.open_flow_switch1.etherMAC[1].mac 	droppedPkIfaceDown:sum(packetBytes) 	0
attr interpolationmode  none
attr source  dropPkIfaceDown
attr title  "packets dropped/interface down, sum(packetBytes)"
scalar Scenario_TestCaseAltered.open_flow_switch1.etherMAC[1].mac 	droppedPkBitError:count 	0
attr interpolationmode  none
attr source  dropPkBitError
attr title  "packets dropped/bit error, count"
scalar Scenario_TestCaseAltered.open_flow_switch1.etherMAC[1].mac 	droppedPkBitError:sum(packetBytes) 	0
attr interpolationmode  none
attr source  dropPkBitError
attr title  "packets dropped/bit error, sum(packetBytes)"
scalar Scenario_TestCaseAltered.open_flow_switch1.etherMAC[1].mac 	rxPkFromHL:count 	1
attr interpolationmode  none
attr source  rxPkFromHL
attr title  "packet bytes from higher layer, count"
scalar Scenario_TestCaseAltered.open_flow_switch1.etherMAC[1].mac 	rxPkFromHL:sum(packetBytes) 	64
attr interpolationmode  none
attr source  rxPkFromHL
attr title  "packet bytes from higher layer, sum(packetBytes)"
scalar Scenario_TestCaseAltered.open_flow_switch1.etherMAC[1].mac 	rxPausePkUnits:count 	0
attr interpolationmode  none
attr title  "pause units received, count"
scalar Scenario_TestCaseAltered.open_flow_switch1.etherMAC[1].mac 	rxPausePkUnits:sum 	0
attr interpolationmode  none
attr title  "pause units received, sum"
scalar Scenario_TestCaseAltered.open_flow_switch1.etherMAC[1].mac 	txPausePkUnits:count 	0
attr interpolationmode  none
attr title  "pause units sent, count"
scalar Scenario_TestCaseAltered.open_flow_switch1.etherMAC[1].mac 	txPausePkUnits:sum 	0
attr interpolationmode  none
attr title  "pause units sent, sum"
scalar Scenario_TestCaseAltered.open_flow_switch1.etherMAC[1].mac 	rxPkOk:count 	0
attr interpolationmode  none
attr source  rxPkOk
attr title  "packets received OK, count"
scalar Scenario_TestCaseAltered.open_flow_switch1.etherMAC[1].mac 	rxPkOk:sum(packetBytes) 	0
attr interpolationmode  none
attr source  rxPkOk
attr title  "packets received OK, sum(packetBytes)"
scalar Scenario_TestCaseAltered.open_flow_switch1.etherMAC[1].mac 	txPk:count 	1
attr interpolationmode  none
attr source  txPk
attr title  "packets transmitted, count"
scalar Scenario_TestCaseAltered.open_flow_switch1.etherMAC[1].mac 	txPk:sum(packetBytes) 	64
attr interpolationmode  none
attr source  txPk
attr title  "packets transmitted, sum(packetBytes)"
scalar Scenario_TestCaseAltered.open_flow_switch1.etherMAC[1].mac 	backoff:count 	0
attr interpolationmode  none
attr title  "backoff, count"
scalar Scenario_TestCaseAltered.open_flow_switch1.etherMAC[1].mac 	collision:count 	0
attr interpolationmode  none
attr title  "collision, count"
scalar Scenario_TestCaseAltered.open_flow_switch1.etherMAC[1].mac 	passedUpPk:count 	0
attr interpolationmode  none
attr source  packetSentToUpper
attr title  "packets passed to higher layer, count"
scalar Scenario_TestCaseAltered.open_flow_switch1.etherMAC[1].mac 	passedUpPk:sum(packetBytes) 	0
attr interpolationmode  none
attr source  packetSentToUpper
attr title  "packets passed to higher layer, sum(packetBytes)"
scalar Scenario_TestCaseAltered.open_flow_switch1.etherMAC[2].mac 	"simulated time" 	14.999
scalar Scenario_TestCaseAltered.open_flow_switch1.etherMAC[2].mac 	full-duplex 	1
scalar Scenario_TestCaseAltered.open_flow_switch1.etherMAC[2].mac 	"frames/sec sent" 	57.403826921795
scalar Scenario_TestCaseAltered.open_flow_switch1.etherMAC[2].mac 	"frames/sec rcvd" 	40.402693512901
scalar Scenario_TestCaseAltered.open_flow_switch1.etherMAC[2].mac 	"bits/sec sent" 	45711.847456497
scalar Scenario_TestCaseAltered.open_flow_switch1.etherMAC[2].mac 	"bits/sec rcvd" 	37007.267151143
scalar Scenario_TestCaseAltered.open_flow_switch1.etherMAC[2].mac 	"rx channel idle (%)" 	99.960406960597
scalar Scenario_TestCaseAltered.open_flow_switch1.etherMAC[2].mac 	"rx channel utilization (%)" 	0.039593039402627
scalar Scenario_TestCaseAltered.open_flow_switch1.etherMAC[2].mac 	"rx channel collision (%)" 	0
scalar Scenario_TestCaseAltered.open_flow_switch1.etherMAC[2].mac 	collisions 	0
scalar Scenario_TestCaseAltered.open_flow_switch1.etherMAC[2].mac 	backoffs 	0
scalar Scenario_TestCaseAltered.open_flow_switch1.etherMAC[2].mac 	droppedPkNotForUs:count 	0
attr interpolationmode  none
attr source  dropPkNotForUs
attr title  "packets dropped/not for us, count"
scalar Scenario_TestCaseAltered.open_flow_switch1.etherMAC[2].mac 	droppedPkNotForUs:sum(packetBytes) 	0
attr interpolationmode  none
attr source  dropPkNotForUs
attr title  "packets dropped/not for us, sum(packetBytes)"
scalar Scenario_TestCaseAltered.open_flow_switch1.etherMAC[2].mac 	droppedPkIfaceDown:count 	0
attr interpolationmode  none
attr source  dropPkIfaceDown
attr title  "packets dropped/interface down, count"
scalar Scenario_TestCaseAltered.open_flow_switch1.etherMAC[2].mac 	droppedPkIfaceDown:sum(packetBytes) 	0
attr interpolationmode  none
attr source  dropPkIfaceDown
attr title  "packets dropped/interface down, sum(packetBytes)"
scalar Scenario_TestCaseAltered.open_flow_switch1.etherMAC[2].mac 	droppedPkBitError:count 	0
attr interpolationmode  none
attr source  dropPkBitError
attr title  "packets dropped/bit error, count"
scalar Scenario_TestCaseAltered.open_flow_switch1.etherMAC[2].mac 	droppedPkBitError:sum(packetBytes) 	0
attr interpolationmode  none
attr source  dropPkBitError
attr title  "packets dropped/bit error, sum(packetBytes)"
scalar Scenario_TestCaseAltered.open_flow_switch1.etherMAC[2].mac 	rxPkFromHL:count 	861
attr interpolationmode  none
attr source  rxPkFromHL
attr title  "packet bytes from higher layer, count"
scalar Scenario_TestCaseAltered.open_flow_switch1.etherMAC[2].mac 	rxPkFromHL:sum(packetBytes) 	85704
attr interpolationmode  none
attr source  rxPkFromHL
attr title  "packet bytes from higher layer, sum(packetBytes)"
scalar Scenario_TestCaseAltered.open_flow_switch1.etherMAC[2].mac 	rxPausePkUnits:count 	0
attr interpolationmode  none
attr title  "pause units received, count"
scalar Scenario_TestCaseAltered.open_flow_switch1.etherMAC[2].mac 	rxPausePkUnits:sum 	0
attr interpolationmode  none
attr title  "pause units received, sum"
scalar Scenario_TestCaseAltered.open_flow_switch1.etherMAC[2].mac 	txPausePkUnits:count 	0
attr interpolationmode  none
attr title  "pause units sent, count"
scalar Scenario_TestCaseAltered.open_flow_switch1.etherMAC[2].mac 	txPausePkUnits:sum 	0
attr interpolationmode  none
attr title  "pause units sent, sum"
scalar Scenario_TestCaseAltered.open_flow_switch1.etherMAC[2].mac 	rxPkOk:count 	606
attr interpolationmode  none
attr source  rxPkOk
attr title  "packets received OK, count"
scalar Scenario_TestCaseAltered.open_flow_switch1.etherMAC[2].mac 	rxPkOk:sum(packetBytes) 	69384
attr interpolationmode  none
attr source  rxPkOk
attr title  "packets received OK, sum(packetBytes)"
scalar Scenario_TestCaseAltered.open_flow_switch1.etherMAC[2].mac 	txPk:count 	861
attr interpolationmode  none
attr source  txPk
attr title  "packets transmitted, count"
scalar Scenario_TestCaseAltered.open_flow_switch1.etherMAC[2].mac 	txPk:sum(packetBytes) 	85704
attr interpolationmode  none
attr source  txPk
attr title  "packets transmitted, sum(packetBytes)"
scalar Scenario_TestCaseAltered.open_flow_switch1.etherMAC[2].mac 	backoff:count 	0
attr interpolationmode  none
attr title  "backoff, count"
scalar Scenario_TestCaseAltered.open_flow_switch1.etherMAC[2].mac 	collision:count 	0
attr interpolationmode  none
attr title  "collision, count"
scalar Scenario_TestCaseAltered.open_flow_switch1.etherMAC[2].mac 	passedUpPk:count 	606
attr interpolationmode  none
attr source  packetSentToUpper
attr title  "packets passed to higher layer, count"
scalar Scenario_TestCaseAltered.open_flow_switch1.etherMAC[2].mac 	passedUpPk:sum(packetBytes) 	69384
attr interpolationmode  none
attr source  packetSentToUpper
attr title  "packets passed to higher layer, sum(packetBytes)"
scalar Scenario_TestCaseAltered.open_flow_switch1.OF_Switch 	packetsDataPlane 	1467
scalar Scenario_TestCaseAltered.open_flow_switch1.OF_Switch 	packetsControlPlane 	391
scalar Scenario_TestCaseAltered.open_flow_switch1.OF_Switch 	flowTableHit 	1347
scalar Scenario_TestCaseAltered.open_flow_switch1.OF_Switch 	flowTableMiss 	120
statistic Scenario_TestCaseAltered.open_flow_switch1.OF_Switch 	falseNegative:stats
field count 225
field mean 1
field stddev 0
field sum 225
field sqrsum 225
field min 1
field max 1
attr interpolationmode  none
attr title  "falseNegative, stats"
statistic Scenario_TestCaseAltered.open_flow_switch1.OF_Switch 	falsePositive:stats
field count 0
field mean -nan
field stddev -nan
field sum 0
field sqrsum 0
field min -nan
field max -nan
attr interpolationmode  none
attr title  "falsePositive, stats"
statistic Scenario_TestCaseAltered.open_flow_switch1.OF_Switch 	trueNegative:stats
field count 1090
field mean 1
field stddev 0
field sum 1090
field sqrsum 1090
field min 1
field max 1
attr interpolationmode  none
attr title  "trueNegative, stats"
statistic Scenario_TestCaseAltered.open_flow_switch1.OF_Switch 	truePositive:stats
field count 200
field mean 3.49319045
field stddev 1.4083788273128
field sum 698.63809
field sqrsum 2835.1985573176
field min 2.51347416
field max 5.928193159999
attr interpolationmode  none
attr title  "truePositive, stats"
statistic Scenario_TestCaseAltered.open_flow_switch1.OF_Switch 	bufferSize:stats
field count 1858
field mean 0.51022604951561
field stddev 1.2954303732519
field sum 948
field sqrsum 3600
field min 0
field max 6
attr interpolationmode  none
attr title  "BufferSize, stats"
statistic Scenario_TestCaseAltered.open_flow_switch1.OF_Switch 	queueSize:stats
field count 1858
field mean 3.1458557588805
field stddev 3.5348463873096
field sum 5845
field sqrsum 41591
field min 0
field max 16
attr interpolationmode  none
attr title  "QueueSize, stats"
statistic Scenario_TestCaseAltered.open_flow_switch1.OF_Switch 	dpPingPacketHash:stats
field count 0
field mean -nan
field stddev -nan
field sum 0
field sqrsum 0
field min -nan
field max -nan
attr interpolationmode  none
attr title  "DpPingPacketHash, stats"
statistic Scenario_TestCaseAltered.open_flow_switch1.OF_Switch 	cpPingPacketHash:stats
field count 0
field mean -nan
field stddev -nan
field sum 0
field sqrsum 0
field min -nan
field max -nan
attr interpolationmode  none
attr title  "CpPingPacketHash, stats"
scalar Scenario_TestCaseAltered.open_flow_controller1.controllerApps[0] 	numPacketOut 	169
scalar Scenario_TestCaseAltered.open_flow_controller1.controllerApps[0] 	numFlowMod 	169
scalar Scenario_TestCaseAltered.open_flow_controller1.controllerApps[0] 	packetsDropped 	50
scalar Scenario_TestCaseAltered.open_flow_controller1.controllerApps[0] 	packetsFlooded 	1
scalar Scenario_TestCaseAltered.open_flow_controller1.networkLayer.arp 	failedARPResolution:count 	0
attr title  "ARP failed resolutions, count"
scalar Scenario_TestCaseAltered.open_flow_controller1.networkLayer.arp 	completedARPResolution:count 	1
attr title  "ARP completed resolutions, count"
scalar Scenario_TestCaseAltered.open_flow_controller1.networkLayer.arp 	initiatedARPResolution:count 	0
attr title  "ARP initiated resolutions, count"
scalar Scenario_TestCaseAltered.open_flow_controller1.networkLayer.arp 	sentReply:count 	1
attr title  "ARP replies sent, count"
scalar Scenario_TestCaseAltered.open_flow_controller1.networkLayer.arp 	sentReq:count 	0
attr title  "ARP request sent, count"
scalar Scenario_TestCaseAltered.open_flow_controller1.eth[0].mac 	"simulated time" 	14.999
scalar Scenario_TestCaseAltered.open_flow_controller1.eth[0].mac 	full-duplex 	1
scalar Scenario_TestCaseAltered.open_flow_controller1.eth[0].mac 	"frames/sec sent" 	28.335222348157
scalar Scenario_TestCaseAltered.open_flow_controller1.eth[0].mac 	"frames/sec rcvd" 	28.335222348157
scalar Scenario_TestCaseAltered.open_flow_controller1.eth[0].mac 	"bits/sec sent" 	24990.466031069
scalar Scenario_TestCaseAltered.open_flow_controller1.eth[0].mac 	"bits/sec rcvd" 	18586.839122608
scalar Scenario_TestCaseAltered.open_flow_controller1.eth[0].mac 	"rx channel idle (%)" 	99.979599707454
scalar Scenario_TestCaseAltered.open_flow_controller1.eth[0].mac 	"rx channel utilization (%)" 	0.02040029254617
scalar Scenario_TestCaseAltered.open_flow_controller1.eth[0].mac 	droppedPkNotForUs:count 	0
attr interpolationmode  none
attr source  dropPkNotForUs
attr title  "packets dropped/not for us, count"
scalar Scenario_TestCaseAltered.open_flow_controller1.eth[0].mac 	droppedPkNotForUs:sum(packetBytes) 	0
attr interpolationmode  none
attr source  dropPkNotForUs
attr title  "packets dropped/not for us, sum(packetBytes)"
scalar Scenario_TestCaseAltered.open_flow_controller1.eth[0].mac 	droppedPkIfaceDown:count 	0
attr interpolationmode  none
attr source  dropPkIfaceDown
attr title  "packets dropped/interface down, count"
scalar Scenario_TestCaseAltered.open_flow_controller1.eth[0].mac 	droppedPkIfaceDown:sum(packetBytes) 	0
attr interpolationmode  none
attr source  dropPkIfaceDown
attr title  "packets dropped/interface down, sum(packetBytes)"
scalar Scenario_TestCaseAltered.open_flow_controller1.eth[0].mac 	droppedPkBitError:count 	0
attr interpolationmode  none
attr source  dropPkBitError
attr title  "packets dropped/bit error, count"
scalar Scenario_TestCaseAltered.open_flow_controller1.eth[0].mac 	droppedPkBitError:sum(packetBytes) 	0
attr interpolationmode  none
attr source  dropPkBitError
attr title  "packets dropped/bit error, sum(packetBytes)"
scalar Scenario_TestCaseAltered.open_flow_controller1.eth[0].mac 	rxPkFromHL:count 	425
attr interpolationmode  none
attr source  rxPkFromHL
attr title  "packet bytes from higher layer, count"
scalar Scenario_TestCaseAltered.open_flow_controller1.eth[0].mac 	rxPkFromHL:sum(packetBytes) 	46854
attr interpolationmode  none
attr source  rxPkFromHL
attr title  "packet bytes from higher layer, sum(packetBytes)"
scalar Scenario_TestCaseAltered.open_flow_controller1.eth[0].mac 	rxPausePkUnits:count 	0
attr interpolationmode  none
attr title  "pause units received, count"
scalar Scenario_TestCaseAltered.open_flow_controller1.eth[0].mac 	rxPausePkUnits:sum 	0
attr interpolationmode  none
attr title  "pause units received, sum"
scalar Scenario_TestCaseAltered.open_flow_controller1.eth[0].mac 	txPausePkUnits:count 	0
attr interpolationmode  none
attr title  "pause units sent, count"
scalar Scenario_TestCaseAltered.open_flow_controller1.eth[0].mac 	txPausePkUnits:sum 	0
attr interpolationmode  none
attr title  "pause units sent, sum"
scalar Scenario_TestCaseAltered.open_flow_controller1.eth[0].mac 	rxPkOk:count 	425
attr interpolationmode  none
attr source  rxPkOk
attr title  "packets received OK, count"
scalar Scenario_TestCaseAltered.open_flow_controller1.eth[0].mac 	rxPkOk:sum(packetBytes) 	34848
attr interpolationmode  none
attr source  rxPkOk
attr title  "packets received OK, sum(packetBytes)"
scalar Scenario_TestCaseAltered.open_flow_controller1.eth[0].mac 	txPk:count 	425
attr interpolationmode  none
attr source  txPk
attr title  "packets transmitted, count"
scalar Scenario_TestCaseAltered.open_flow_controller1.eth[0].mac 	txPk:sum(packetBytes) 	46854
attr interpolationmode  none
attr source  txPk
attr title  "packets transmitted, sum(packetBytes)"
scalar Scenario_TestCaseAltered.open_flow_controller1.eth[0].mac 	passedUpPk:count 	425
attr interpolationmode  none
attr source  packetSentToUpper
attr title  "packets passed to higher layer, count"
scalar Scenario_TestCaseAltered.open_flow_controller1.eth[0].mac 	passedUpPk:sum(packetBytes) 	34848
attr interpolationmode  none
attr source  packetSentToUpper
attr title  "packets passed to higher layer, sum(packetBytes)"
scalar Scenario_TestCaseAltered.open_flow_controller1.eth[0].encap 	pauseSent:count 	0
attr title  "pause sent, count"
scalar Scenario_TestCaseAltered.open_flow_controller1.eth[0].encap 	pauseSent:sum 	0
attr title  "pause sent, sum"
scalar Scenario_TestCaseAltered.open_flow_controller1.eth[0].encap 	decapPk:count 	425
attr interpolationmode  none
attr source  decapPk
attr title  "packets decapsulated, count"
scalar Scenario_TestCaseAltered.open_flow_controller1.eth[0].encap 	decapPk:sum(packetBytes) 	25672
attr interpolationmode  none
attr source  decapPk
attr title  "packets decapsulated, sum(packetBytes)"
scalar Scenario_TestCaseAltered.open_flow_controller1.eth[0].encap 	encapPk:count 	425
attr interpolationmode  none
attr source  encapPk
attr title  "packets encapsulated, count"
scalar Scenario_TestCaseAltered.open_flow_controller1.eth[0].encap 	encapPk:sum(packetBytes) 	38152
attr interpolationmode  none
attr source  encapPk
attr title  "packets encapsulated, sum(packetBytes)"
scalar Scenario_TestCaseAltered.open_flow_controller1.OF_Controller 	numPacketIn 	170
scalar Scenario_TestCaseAltered.open_flow_controller1.OF_Controller 	packetsPerSecondAt-0 	3
scalar Scenario_TestCaseAltered.open_flow_controller1.OF_Controller 	packetsPerSecondAt-1 	21
scalar Scenario_TestCaseAltered.open_flow_controller1.OF_Controller 	packetsPerSecondAt-2 	67
scalar Scenario_TestCaseAltered.open_flow_controller1.OF_Controller 	packetsPerSecondAt-5 	54
scalar Scenario_TestCaseAltered.open_flow_controller1.OF_Controller 	packetsPerSecondAt-8 	1
scalar Scenario_TestCaseAltered.open_flow_controller1.OF_Controller 	packetsPerSecondAt-11 	26
scalar Scenario_TestCaseAltered.open_flow_controller1.OF_Controller 	packetsPerSecondAt-14 	1
scalar Scenario_TestCaseAltered.open_flow_controller1.OF_Controller 	avgQueueSizeAt-0 	5.5559999999621e-06
scalar Scenario_TestCaseAltered.pgw.networkLayer.arp 	failedARPResolution:count 	0
attr title  "ARP failed resolutions, count"
scalar Scenario_TestCaseAltered.pgw.networkLayer.arp 	completedARPResolution:count 	0
attr title  "ARP completed resolutions, count"
scalar Scenario_TestCaseAltered.pgw.networkLayer.arp 	initiatedARPResolution:count 	0
attr title  "ARP initiated resolutions, count"
scalar Scenario_TestCaseAltered.pgw.networkLayer.arp 	sentReply:count 	0
attr title  "ARP replies sent, count"
scalar Scenario_TestCaseAltered.pgw.networkLayer.arp 	sentReq:count 	0
attr title  "ARP request sent, count"
scalar Scenario_TestCaseAltered.pgw.lo0.lo 	droppedPkBitError:count 	0
attr interpolationmode  none
attr source  dropPkBitError
attr title  "packets dropped/bit error, count"
scalar Scenario_TestCaseAltered.pgw.lo0.lo 	droppedPkBitError:sum(packetBytes) 	0
attr interpolationmode  none
attr source  dropPkBitError
attr title  "packets dropped/bit error, sum(packetBytes)"
scalar Scenario_TestCaseAltered.pgw.lo0.lo 	rcvdPkFromHL:count 	0
attr interpolationmode  none
attr source  packetReceivedFromUpper
attr title  "packets received from higher layer, count"
scalar Scenario_TestCaseAltered.pgw.lo0.lo 	rcvdPkFromHL:sum(packetBytes) 	0
attr interpolationmode  none
attr source  packetReceivedFromUpper
attr title  "packets received from higher layer, sum(packetBytes)"
scalar Scenario_TestCaseAltered.pgw.lo0.lo 	passedUpPk:count 	0
attr interpolationmode  none
attr source  packetSentToUpper
attr title  "packets passed to higher layer, count"
scalar Scenario_TestCaseAltered.pgw.lo0.lo 	passedUpPk:sum(packetBytes) 	0
attr interpolationmode  none
attr source  packetSentToUpper
attr title  "packets passed to higher layer, sum(packetBytes)"
scalar Scenario_TestCaseAltered.pgw.ppp[0].queue 	queueLength:max 	1
attr interpolationmode  sample-hold
attr title  "queue length, max"
scalar Scenario_TestCaseAltered.pgw.ppp[0].queue 	queueLength:timeavg 	8.2909525435029e-05
attr interpolationmode  sample-hold
attr title  "queue length, timeavg"
statistic Scenario_TestCaseAltered.pgw.ppp[0].queue 	queueingTime:histogram
field count 860
field mean 1.4459999674419e-06
field stddev 7.6484226214825e-06
field sum 0.001243559972
field sqrsum 5.204828630368e-08
field min 0
field max 4.512e-05
attr interpolationmode  none
attr title  "queueing time, histogram"
bin	-INF	0
bin	-2.256e-05	0
bin	-1.9552e-05	0
bin	-1.6544e-05	0
bin	-1.3536e-05	0
bin	-1.0528e-05	0
bin	-7.52e-06	0
bin	-4.512e-06	0
bin	-1.504e-06	816
bin	1.504e-06	14
bin	4.512e-06	0
bin	7.52e-06	0
bin	1.0528e-05	0
bin	1.3536e-05	0
bin	1.6544e-05	0
bin	1.9552e-05	5
bin	2.256e-05	0
bin	2.5568e-05	0
bin	2.8576e-05	1
bin	3.1584e-05	0
bin	3.4592e-05	0
bin	3.76e-05	0
bin	4.0608e-05	0
bin	4.3616e-05	24
bin	4.6624e-05	0
bin	4.9632e-05	0
bin	5.264e-05	0
bin	5.5648e-05	0
bin	5.8656e-05	0
bin	6.1664e-05	0
bin	6.4672e-05	0
bin	6.768e-05	0
scalar Scenario_TestCaseAltered.pgw.ppp[0].queue 	dropPk:count 	0
attr interpolationmode  none
attr source  dropPkByQueue
attr title  "dropped packets, count"
scalar Scenario_TestCaseAltered.pgw.ppp[0].queue 	dropPk:sum(packetBytes) 	0
attr interpolationmode  none
attr source  dropPkByQueue
attr title  "dropped packets, sum(packetBytes)"
scalar Scenario_TestCaseAltered.pgw.ppp[0].queue 	rcvdPk:count 	860
attr interpolationmode  none
attr title  "received packets, count"
scalar Scenario_TestCaseAltered.pgw.ppp[0].queue 	rcvdPk:sum(packetBytes) 	92240
attr interpolationmode  none
attr title  "received packets, sum(packetBytes)"
scalar Scenario_TestCaseAltered.pgw.ppp[0].ppp 	txState:timeavg 	0.00052408827121808
attr interpolationmode  sample-hold
attr title  "tx state, timeavg"
scalar Scenario_TestCaseAltered.pgw.ppp[0].ppp 	droppedPkIfaceDown:count 	0
attr interpolationmode  none
attr source  dropPkIfaceDown
attr title  "packets dropped/interface down, count"
scalar Scenario_TestCaseAltered.pgw.ppp[0].ppp 	droppedPkIfaceDown:sum(packetBytes) 	0
attr interpolationmode  none
attr source  dropPkIfaceDown
attr title  "packets dropped/interface down, sum(packetBytes)"
scalar Scenario_TestCaseAltered.pgw.ppp[0].ppp 	droppedPkBitError:count 	0
attr interpolationmode  none
attr source  dropPkBitError
attr title  "packets dropped/bit error, count"
scalar Scenario_TestCaseAltered.pgw.ppp[0].ppp 	droppedPkBitError:sum(packetBytes) 	0
attr interpolationmode  none
attr source  dropPkBitError
attr title  "packets dropped/bit error, sum(packetBytes)"
scalar Scenario_TestCaseAltered.pgw.ppp[0].ppp 	rxPkOk:count 	605
attr interpolationmode  none
attr source  rxPkOk
attr title  "packets received OK, count"
scalar Scenario_TestCaseAltered.pgw.ppp[0].ppp 	rxPkOk:sum(packetBytes) 	78035
attr interpolationmode  none
attr source  rxPkOk
attr title  "packets received OK, sum(packetBytes)"
scalar Scenario_TestCaseAltered.pgw.ppp[0].ppp 	rcvdPkFromHL:count 	860
attr interpolationmode  none
attr source  packetReceivedFromUpper
attr title  "packets received from higher layer, count"
scalar Scenario_TestCaseAltered.pgw.ppp[0].ppp 	rcvdPkFromHL:sum(packetBytes) 	92240
attr interpolationmode  none
attr source  packetReceivedFromUpper
attr title  "packets received from higher layer, sum(packetBytes)"
scalar Scenario_TestCaseAltered.pgw.ppp[0].ppp 	passedUpPk:count 	605
attr interpolationmode  none
attr source  packetSentToUpper
attr title  "packets passed to higher layer, count"
scalar Scenario_TestCaseAltered.pgw.ppp[0].ppp 	passedUpPk:sum(packetBytes) 	73800
attr interpolationmode  none
attr source  packetSentToUpper
attr title  "packets passed to higher layer, sum(packetBytes)"
scalar Scenario_TestCaseAltered.pgw.ppp[0].ppp 	txPk:count 	860
attr interpolationmode  none
attr source  packetSentToLower
attr title  "packets transmitted, count"
scalar Scenario_TestCaseAltered.pgw.ppp[0].ppp 	txPk:sum(packetBytes) 	98260
attr interpolationmode  none
attr source  packetSentToLower
attr title  "packets transmitted, sum(packetBytes)"
scalar Scenario_TestCaseAltered.pgw.pppInterface.queue 	queueLength:max 	3
attr interpolationmode  sample-hold
attr title  "queue length, max"
scalar Scenario_TestCaseAltered.pgw.pppInterface.queue 	queueLength:timeavg 	2.4374958330555e-05
attr interpolationmode  sample-hold
attr title  "queue length, timeavg"
statistic Scenario_TestCaseAltered.pgw.pppInterface.queue 	queueingTime:histogram
field count 605
field mean 6.0429752066116e-07
field stddev 3.4932570871463e-06
field sum 0.0003656
field sqrsum 7.5914496e-09
field min 0
field max 4.032e-05
attr interpolationmode  none
attr title  "queueing time, histogram"
bin	-INF	0
bin	-4.08e-06	0
bin	-3.536e-06	0
bin	-2.992e-06	0
bin	-2.448e-06	0
bin	-1.904e-06	0
bin	-1.36e-06	0
bin	-8.16e-07	0
bin	-2.72e-07	579
bin	2.72e-07	0
bin	8.16e-07	0
bin	1.36e-06	0
bin	1.904e-06	0
bin	2.448e-06	0
bin	2.992e-06	1
bin	3.536e-06	0
bin	4.08e-06	0
bin	4.624e-06	0
bin	5.168e-06	1
bin	5.712e-06	0
bin	6.256e-06	0
bin	6.8e-06	0
bin	7.344e-06	0
bin	7.888e-06	13
bin	8.432e-06	0
bin	8.976e-06	0
bin	9.52e-06	0
bin	1.0064e-05	0
bin	1.0608e-05	0
bin	1.1152e-05	0
bin	1.1696e-05	0
bin	1.224e-05	11
scalar Scenario_TestCaseAltered.pgw.pppInterface.queue 	dropPk:count 	0
attr interpolationmode  none
attr source  dropPkByQueue
attr title  "dropped packets, count"
scalar Scenario_TestCaseAltered.pgw.pppInterface.queue 	dropPk:sum(packetBytes) 	0
attr interpolationmode  none
attr source  dropPkByQueue
attr title  "dropped packets, sum(packetBytes)"
scalar Scenario_TestCaseAltered.pgw.pppInterface.queue 	rcvdPk:count 	605
attr interpolationmode  none
attr title  "received packets, count"
scalar Scenario_TestCaseAltered.pgw.pppInterface.queue 	rcvdPk:sum(packetBytes) 	56860
attr interpolationmode  none
attr title  "received packets, sum(packetBytes)"
scalar Scenario_TestCaseAltered.pgw.pppInterface.ppp 	txState:timeavg 	0.00032586172411494
attr interpolationmode  sample-hold
attr title  "tx state, timeavg"
scalar Scenario_TestCaseAltered.pgw.pppInterface.ppp 	droppedPkIfaceDown:count 	0
attr interpolationmode  none
attr source  dropPkIfaceDown
attr title  "packets dropped/interface down, count"
scalar Scenario_TestCaseAltered.pgw.pppInterface.ppp 	droppedPkIfaceDown:sum(packetBytes) 	0
attr interpolationmode  none
attr source  dropPkIfaceDown
attr title  "packets dropped/interface down, sum(packetBytes)"
scalar Scenario_TestCaseAltered.pgw.pppInterface.ppp 	droppedPkBitError:count 	0
attr interpolationmode  none
attr source  dropPkBitError
attr title  "packets dropped/bit error, count"
scalar Scenario_TestCaseAltered.pgw.pppInterface.ppp 	droppedPkBitError:sum(packetBytes) 	0
attr interpolationmode  none
attr source  dropPkBitError
attr title  "packets dropped/bit error, sum(packetBytes)"
scalar Scenario_TestCaseAltered.pgw.pppInterface.ppp 	rxPkOk:count 	860
attr interpolationmode  none
attr source  rxPkOk
attr title  "packets received OK, count"
scalar Scenario_TestCaseAltered.pgw.pppInterface.ppp 	rxPkOk:sum(packetBytes) 	74180
attr interpolationmode  none
attr source  rxPkOk
attr title  "packets received OK, sum(packetBytes)"
scalar Scenario_TestCaseAltered.pgw.pppInterface.ppp 	rcvdPkFromHL:count 	605
attr interpolationmode  none
attr source  packetReceivedFromUpper
attr title  "packets received from higher layer, count"
scalar Scenario_TestCaseAltered.pgw.pppInterface.ppp 	rcvdPkFromHL:sum(packetBytes) 	56860
attr interpolationmode  none
attr source  packetReceivedFromUpper
attr title  "packets received from higher layer, sum(packetBytes)"
scalar Scenario_TestCaseAltered.pgw.pppInterface.ppp 	passedUpPk:count 	860
attr interpolationmode  none
attr source  packetSentToUpper
attr title  "packets passed to higher layer, count"
scalar Scenario_TestCaseAltered.pgw.pppInterface.ppp 	passedUpPk:sum(packetBytes) 	68160
attr interpolationmode  none
attr source  packetSentToUpper
attr title  "packets passed to higher layer, sum(packetBytes)"
scalar Scenario_TestCaseAltered.pgw.pppInterface.ppp 	txPk:count 	605
attr interpolationmode  none
attr source  packetSentToLower
attr title  "packets transmitted, count"
scalar Scenario_TestCaseAltered.pgw.pppInterface.ppp 	txPk:sum(packetBytes) 	61095
attr interpolationmode  none
attr source  packetSentToLower
attr title  "packets transmitted, sum(packetBytes)"
scalar Scenario_TestCaseAltered.pgw.udp 	droppedPkBadChecksum:count 	0
attr interpolationmode  none
attr title  "packets dropped (checksum error), count"
scalar Scenario_TestCaseAltered.pgw.udp 	droppedPkWrongPort:count 	0
attr interpolationmode  none
attr title  "packets dropped (wrong port), count"
scalar Scenario_TestCaseAltered.pgw.udp 	passedUpPk:count 	605
attr interpolationmode  none
attr title  "packets passed up, count"
scalar Scenario_TestCaseAltered.pgw.udp 	rcvdPk:count 	605
attr interpolationmode  none
attr source  rcvdPk
attr title  "packets received, count"
scalar Scenario_TestCaseAltered.pgw.udp 	rcvdPk:sum(packetBytes) 	61700
attr interpolationmode  none
attr source  rcvdPk
attr title  "packets received, sum(packetBytes)"
scalar Scenario_TestCaseAltered.pgw.udp 	sentPk:count 	860
attr interpolationmode  none
attr source  sentPk
attr title  "packets sent, count"
scalar Scenario_TestCaseAltered.pgw.udp 	sentPk:sum(packetBytes) 	75040
attr interpolationmode  none
attr source  sentPk
attr title  "packets sent, sum(packetBytes)"
scalar Scenario_TestCaseAltered.eNodeB.nic.pdcpRrc 	sentPacketToLowerLayer:count 	860
attr interpolationmode  none
attr source  sentPacketToLowerLayer
scalar Scenario_TestCaseAltered.eNodeB.nic.pdcpRrc 	sentPacketToLowerLayer:sum(packetBytes) 	69020
attr interpolationmode  none
attr source  sentPacketToLowerLayer
scalar Scenario_TestCaseAltered.eNodeB.nic.pdcpRrc 	sentPacketToUpperLayer:count 	605
attr interpolationmode  none
attr source  sentPacketToUpperLayer
scalar Scenario_TestCaseAltered.eNodeB.nic.pdcpRrc 	sentPacketToUpperLayer:sum(packetBytes) 	56860
attr interpolationmode  none
attr source  sentPacketToUpperLayer
scalar Scenario_TestCaseAltered.eNodeB.nic.pdcpRrc 	receivedPacketFromLowerLayer:count 	605
attr interpolationmode  none
attr source  receivedPacketFromLowerLayer
scalar Scenario_TestCaseAltered.eNodeB.nic.pdcpRrc 	receivedPacketFromLowerLayer:sum(packetBytes) 	57465
attr interpolationmode  none
attr source  receivedPacketFromLowerLayer
scalar Scenario_TestCaseAltered.eNodeB.nic.pdcpRrc 	receivedPacketFromUpperLayer:count 	860
attr interpolationmode  none
attr source  receivedPacketFromUpperLayer
scalar Scenario_TestCaseAltered.eNodeB.nic.pdcpRrc 	receivedPacketFromUpperLayer:sum(packetBytes) 	68160
attr interpolationmode  none
attr source  receivedPacketFromUpperLayer
scalar Scenario_TestCaseAltered.eNodeB.nic.rlc.um 	rlcCellPacketLossUl:lteAvg 	0
attr source  rlcCellPacketLossUl
attr title  "rlc Cell Packet Loss, lteAvg"
attr unit  ""
scalar Scenario_TestCaseAltered.eNodeB.nic.rlc.um 	rlcCellPacketLossDl:lteAvg 	0
attr source  rlcCellPacketLossDl
attr title  "rlc Cell Packet Loss, lteAvg"
attr unit  ""
scalar Scenario_TestCaseAltered.eNodeB.nic.rlc.um 	rlcCellThroughputDl:lteRate 	4935.2878083661
attr source  rlcCellThroughputDl
attr title  "Cell Throughput at the rlc layer DL, lteRate"
attr unit  Bps
scalar Scenario_TestCaseAltered.eNodeB.nic.rlc.um 	rlcCellThroughputUl:lteRate 	4107.2832535201
attr source  rlcCellThroughputUl
attr title  "Cell Throughput at the rlc layer UL, lteRate"
attr unit  Bps
scalar Scenario_TestCaseAltered.eNodeB.nic.mac 	cqiDlMuMimo0:lteAvg 	15
attr source  cqiDlMuMimo0
attr title  "Average cqi MuMimo band 0, lteAvg"
attr unit  cqi
scalar Scenario_TestCaseAltered.eNodeB.nic.mac 	cqiDlMuMimo0:lteAvg 	15
attr source  cqiDlMuMimo0
attr title  "Average cqi MuMimo band 0, lteAvg"
attr unit  cqi
scalar Scenario_TestCaseAltered.eNodeB.nic.mac 	cqiDlMuMimo0:lteAvg 	15
attr source  cqiDlMuMimo0
attr title  "Average cqi MuMimo band 0, lteAvg"
attr unit  cqi
scalar Scenario_TestCaseAltered.eNodeB.nic.mac 	cqiDlMuMimo0:lteAvg 	15
attr source  cqiDlMuMimo0
attr title  "Average cqi MuMimo band 0, lteAvg"
attr unit  cqi
scalar Scenario_TestCaseAltered.eNodeB.nic.mac 	cqiDlMuMimo0:lteAvg 	15
attr source  cqiDlMuMimo0
attr title  "Average cqi MuMimo band 0, lteAvg"
attr unit  cqi
scalar Scenario_TestCaseAltered.eNodeB.nic.mac 	cqiDlMuMimo0:lteAvg 	15
attr source  cqiDlMuMimo0
attr title  "Average cqi MuMimo band 0, lteAvg"
attr unit  cqi
scalar Scenario_TestCaseAltered.eNodeB.nic.mac 	cqiDlMuMimo0:lteAvg 	15
attr source  cqiDlMuMimo0
attr title  "Average cqi MuMimo band 0, lteAvg"
attr unit  cqi
scalar Scenario_TestCaseAltered.eNodeB.nic.mac 	cqiDlMuMimo0:lteAvg 	15
attr source  cqiDlMuMimo0
attr title  "Average cqi MuMimo band 0, lteAvg"
attr unit  cqi
scalar Scenario_TestCaseAltered.eNodeB.nic.mac 	cqiDlMuMimo0:lteAvg 	15
attr source  cqiDlMuMimo0
attr title  "Average cqi MuMimo band 0, lteAvg"
attr unit  cqi
scalar Scenario_TestCaseAltered.eNodeB.nic.mac 	cqiDlMuMimo0:lteAvg 	15
attr source  cqiDlMuMimo0
attr title  "Average cqi MuMimo band 0, lteAvg"
attr unit  cqi
scalar Scenario_TestCaseAltered.eNodeB.nic.mac 	cqiDlMuMimo0:lteAvg 	15
attr source  cqiDlMuMimo0
attr title  "Average cqi MuMimo band 0, lteAvg"
attr unit  cqi
scalar Scenario_TestCaseAltered.eNodeB.nic.mac 	cqiDlMuMimo0:lteAvg 	15
attr source  cqiDlMuMimo0
attr title  "Average cqi MuMimo band 0, lteAvg"
attr unit  cqi
scalar Scenario_TestCaseAltered.eNodeB.nic.mac 	cqiDlMuMimo0:lteAvg 	15
attr source  cqiDlMuMimo0
attr title  "Average cqi MuMimo band 0, lteAvg"
attr unit  cqi
scalar Scenario_TestCaseAltered.eNodeB.nic.mac 	cqiDlMuMimo0:lteAvg 	15
attr source  cqiDlMuMimo0
attr title  "Average cqi MuMimo band 0, lteAvg"
attr unit  cqi
scalar Scenario_TestCaseAltered.eNodeB.nic.mac 	cqiDlMuMimo0:lteAvg 	15
attr source  cqiDlMuMimo0
attr title  "Average cqi MuMimo band 0, lteAvg"
attr unit  cqi
scalar Scenario_TestCaseAltered.eNodeB.nic.mac 	cqiDlMuMimo0:lteAvg 	15
attr source  cqiDlMuMimo0
attr title  "Average cqi MuMimo band 0, lteAvg"
attr unit  cqi
scalar Scenario_TestCaseAltered.eNodeB.nic.mac 	cqiDlMuMimo0:lteAvg 	15
attr source  cqiDlMuMimo0
attr title  "Average cqi MuMimo band 0, lteAvg"
attr unit  cqi
scalar Scenario_TestCaseAltered.eNodeB.nic.mac 	cqiDlMuMimo0:lteAvg 	15
attr source  cqiDlMuMimo0
attr title  "Average cqi MuMimo band 0, lteAvg"
attr unit  cqi
scalar Scenario_TestCaseAltered.eNodeB.nic.mac 	cqiDlMuMimo0:lteAvg 	15
attr source  cqiDlMuMimo0
attr title  "Average cqi MuMimo band 0, lteAvg"
attr unit  cqi
scalar Scenario_TestCaseAltered.eNodeB.nic.mac 	cqiDlMuMimo0:lteAvg 	15
attr source  cqiDlMuMimo0
attr title  "Average cqi MuMimo band 0, lteAvg"
attr unit  cqi
scalar Scenario_TestCaseAltered.eNodeB.nic.mac 	cqiDlMuMimo0:lteAvg 	15
attr source  cqiDlMuMimo0
attr title  "Average cqi MuMimo band 0, lteAvg"
attr unit  cqi
scalar Scenario_TestCaseAltered.eNodeB.nic.mac 	cqiDlMuMimo0:lteAvg 	15
attr source  cqiDlMuMimo0
attr title  "Average cqi MuMimo band 0, lteAvg"
attr unit  cqi
scalar Scenario_TestCaseAltered.eNodeB.nic.mac 	cqiDlMuMimo0:lteAvg 	15
attr source  cqiDlMuMimo0
attr title  "Average cqi MuMimo band 0, lteAvg"
attr unit  cqi
scalar Scenario_TestCaseAltered.eNodeB.nic.mac 	cqiDlMuMimo0:lteAvg 	15
attr source  cqiDlMuMimo0
attr title  "Average cqi MuMimo band 0, lteAvg"
attr unit  cqi
scalar Scenario_TestCaseAltered.eNodeB.nic.mac 	cqiDlMuMimo0:lteAvg 	15
attr source  cqiDlMuMimo0
attr title  "Average cqi MuMimo band 0, lteAvg"
attr unit  cqi
scalar Scenario_TestCaseAltered.eNodeB.nic.mac 	cqiDlMuMimo0:lteAvg 	15
attr source  cqiDlMuMimo0
attr title  "Average cqi MuMimo band 0, lteAvg"
attr unit  cqi
scalar Scenario_TestCaseAltered.eNodeB.nic.mac 	cqiDlMuMimo0:lteAvg 	15
attr source  cqiDlMuMimo0
attr title  "Average cqi MuMimo band 0, lteAvg"
attr unit  cqi
scalar Scenario_TestCaseAltered.eNodeB.nic.mac 	cqiDlMuMimo0:lteAvg 	15
attr source  cqiDlMuMimo0
attr title  "Average cqi MuMimo band 0, lteAvg"
attr unit  cqi
scalar Scenario_TestCaseAltered.eNodeB.nic.mac 	cqiDlMuMimo0:lteAvg 	15
attr source  cqiDlMuMimo0
attr title  "Average cqi MuMimo band 0, lteAvg"
attr unit  cqi
scalar Scenario_TestCaseAltered.eNodeB.nic.mac 	cqiDlMuMimo0:lteAvg 	15
attr source  cqiDlMuMimo0
attr title  "Average cqi MuMimo band 0, lteAvg"
attr unit  cqi
scalar Scenario_TestCaseAltered.eNodeB.nic.mac 	cqiDlMuMimo0:lteAvg 	15
attr source  cqiDlMuMimo0
attr title  "Average cqi MuMimo band 0, lteAvg"
attr unit  cqi
scalar Scenario_TestCaseAltered.eNodeB.nic.mac 	cqiDlMuMimo0:lteAvg 	15
attr source  cqiDlMuMimo0
attr title  "Average cqi MuMimo band 0, lteAvg"
attr unit  cqi
scalar Scenario_TestCaseAltered.eNodeB.nic.mac 	cqiDlMuMimo0:lteAvg 	15
attr source  cqiDlMuMimo0
attr title  "Average cqi MuMimo band 0, lteAvg"
attr unit  cqi
scalar Scenario_TestCaseAltered.eNodeB.nic.mac 	cqiDlMuMimo0:lteAvg 	15
attr source  cqiDlMuMimo0
attr title  "Average cqi MuMimo band 0, lteAvg"
attr unit  cqi
scalar Scenario_TestCaseAltered.eNodeB.nic.mac 	cqiDlMuMimo0:lteAvg 	15
attr source  cqiDlMuMimo0
attr title  "Average cqi MuMimo band 0, lteAvg"
attr unit  cqi
scalar Scenario_TestCaseAltered.eNodeB.nic.mac 	cqiDlTxDiv0:lteAvg 	15
attr source  cqiDlTxDiv0
attr title  "Average cqi TxDiv band 0, lteAvg"
attr unit  cqi
scalar Scenario_TestCaseAltered.eNodeB.nic.mac 	cqiDlTxDiv0:lteAvg 	15
attr source  cqiDlTxDiv0
attr title  "Average cqi TxDiv band 0, lteAvg"
attr unit  cqi
scalar Scenario_TestCaseAltered.eNodeB.nic.mac 	cqiDlTxDiv0:lteAvg 	15
attr source  cqiDlTxDiv0
attr title  "Average cqi TxDiv band 0, lteAvg"
attr unit  cqi
scalar Scenario_TestCaseAltered.eNodeB.nic.mac 	cqiDlTxDiv0:lteAvg 	15
attr source  cqiDlTxDiv0
attr title  "Average cqi TxDiv band 0, lteAvg"
attr unit  cqi
scalar Scenario_TestCaseAltered.eNodeB.nic.mac 	cqiDlTxDiv0:lteAvg 	15
attr source  cqiDlTxDiv0
attr title  "Average cqi TxDiv band 0, lteAvg"
attr unit  cqi
scalar Scenario_TestCaseAltered.eNodeB.nic.mac 	cqiDlTxDiv0:lteAvg 	15
attr source  cqiDlTxDiv0
attr title  "Average cqi TxDiv band 0, lteAvg"
attr unit  cqi
scalar Scenario_TestCaseAltered.eNodeB.nic.mac 	cqiDlTxDiv0:lteAvg 	15
attr source  cqiDlTxDiv0
attr title  "Average cqi TxDiv band 0, lteAvg"
attr unit  cqi
scalar Scenario_TestCaseAltered.eNodeB.nic.mac 	cqiDlTxDiv0:lteAvg 	15
attr source  cqiDlTxDiv0
attr title  "Average cqi TxDiv band 0, lteAvg"
attr unit  cqi
scalar Scenario_TestCaseAltered.eNodeB.nic.mac 	cqiDlTxDiv0:lteAvg 	15
attr source  cqiDlTxDiv0
attr title  "Average cqi TxDiv band 0, lteAvg"
attr unit  cqi
scalar Scenario_TestCaseAltered.eNodeB.nic.mac 	cqiDlTxDiv0:lteAvg 	15
attr source  cqiDlTxDiv0
attr title  "Average cqi TxDiv band 0, lteAvg"
attr unit  cqi
scalar Scenario_TestCaseAltered.eNodeB.nic.mac 	cqiDlTxDiv0:lteAvg 	15
attr source  cqiDlTxDiv0
attr title  "Average cqi TxDiv band 0, lteAvg"
attr unit  cqi
scalar Scenario_TestCaseAltered.eNodeB.nic.mac 	cqiDlTxDiv0:lteAvg 	15
attr source  cqiDlTxDiv0
attr title  "Average cqi TxDiv band 0, lteAvg"
attr unit  cqi
scalar Scenario_TestCaseAltered.eNodeB.nic.mac 	cqiDlTxDiv0:lteAvg 	15
attr source  cqiDlTxDiv0
attr title  "Average cqi TxDiv band 0, lteAvg"
attr unit  cqi
scalar Scenario_TestCaseAltered.eNodeB.nic.mac 	cqiDlTxDiv0:lteAvg 	15
attr source  cqiDlTxDiv0
attr title  "Average cqi TxDiv band 0, lteAvg"
attr unit  cqi
scalar Scenario_TestCaseAltered.eNodeB.nic.mac 	cqiDlTxDiv0:lteAvg 	15
attr source  cqiDlTxDiv0
attr title  "Average cqi TxDiv band 0, lteAvg"
attr unit  cqi
scalar Scenario_TestCaseAltered.eNodeB.nic.mac 	cqiDlTxDiv0:lteAvg 	15
attr source  cqiDlTxDiv0
attr title  "Average cqi TxDiv band 0, lteAvg"
attr unit  cqi
scalar Scenario_TestCaseAltered.eNodeB.nic.mac 	cqiDlTxDiv0:lteAvg 	15
attr source  cqiDlTxDiv0
attr title  "Average cqi TxDiv band 0, lteAvg"
attr unit  cqi
scalar Scenario_TestCaseAltered.eNodeB.nic.mac 	cqiDlTxDiv0:lteAvg 	15
attr source  cqiDlTxDiv0
attr title  "Average cqi TxDiv band 0, lteAvg"
attr unit  cqi
scalar Scenario_TestCaseAltered.eNodeB.nic.mac 	cqiDlTxDiv0:lteAvg 	15
attr source  cqiDlTxDiv0
attr title  "Average cqi TxDiv band 0, lteAvg"
attr unit  cqi
scalar Scenario_TestCaseAltered.eNodeB.nic.mac 	cqiDlTxDiv0:lteAvg 	15
attr source  cqiDlTxDiv0
attr title  "Average cqi TxDiv band 0, lteAvg"
attr unit  cqi
scalar Scenario_TestCaseAltered.eNodeB.nic.mac 	cqiDlTxDiv0:lteAvg 	15
attr source  cqiDlTxDiv0
attr title  "Average cqi TxDiv band 0, lteAvg"
attr unit  cqi
scalar Scenario_TestCaseAltered.eNodeB.nic.mac 	cqiDlTxDiv0:lteAvg 	15
attr source  cqiDlTxDiv0
attr title  "Average cqi TxDiv band 0, lteAvg"
attr unit  cqi
scalar Scenario_TestCaseAltered.eNodeB.nic.mac 	cqiDlTxDiv0:lteAvg 	15
attr source  cqiDlTxDiv0
attr title  "Average cqi TxDiv band 0, lteAvg"
attr unit  cqi
scalar Scenario_TestCaseAltered.eNodeB.nic.mac 	cqiDlTxDiv0:lteAvg 	15
attr source  cqiDlTxDiv0
attr title  "Average cqi TxDiv band 0, lteAvg"
attr unit  cqi
scalar Scenario_TestCaseAltered.eNodeB.nic.mac 	cqiDlTxDiv0:lteAvg 	15
attr source  cqiDlTxDiv0
attr title  "Average cqi TxDiv band 0, lteAvg"
attr unit  cqi
scalar Scenario_TestCaseAltered.eNodeB.nic.mac 	cqiDlTxDiv0:lteAvg 	15
attr source  cqiDlTxDiv0
attr title  "Average cqi TxDiv band 0, lteAvg"
attr unit  cqi
scalar Scenario_TestCaseAltered.eNodeB.nic.mac 	cqiDlTxDiv0:lteAvg 	15
attr source  cqiDlTxDiv0
attr title  "Average cqi TxDiv band 0, lteAvg"
attr unit  cqi
scalar Scenario_TestCaseAltered.eNodeB.nic.mac 	cqiDlTxDiv0:lteAvg 	15
attr source  cqiDlTxDiv0
attr title  "Average cqi TxDiv band 0, lteAvg"
attr unit  cqi
scalar Scenario_TestCaseAltered.eNodeB.nic.mac 	cqiDlTxDiv0:lteAvg 	15
attr source  cqiDlTxDiv0
attr title  "Average cqi TxDiv band 0, lteAvg"
attr unit  cqi
scalar Scenario_TestCaseAltered.eNodeB.nic.mac 	cqiDlTxDiv0:lteAvg 	15
attr source  cqiDlTxDiv0
attr title  "Average cqi TxDiv band 0, lteAvg"
attr unit  cqi
scalar Scenario_TestCaseAltered.eNodeB.nic.mac 	cqiDlTxDiv0:lteAvg 	15
attr source  cqiDlTxDiv0
attr title  "Average cqi TxDiv band 0, lteAvg"
attr unit  cqi
scalar Scenario_TestCaseAltered.eNodeB.nic.mac 	cqiDlTxDiv0:lteAvg 	15
attr source  cqiDlTxDiv0
attr title  "Average cqi TxDiv band 0, lteAvg"
attr unit  cqi
scalar Scenario_TestCaseAltered.eNodeB.nic.mac 	cqiDlTxDiv0:lteAvg 	15
attr source  cqiDlTxDiv0
attr title  "Average cqi TxDiv band 0, lteAvg"
attr unit  cqi
scalar Scenario_TestCaseAltered.eNodeB.nic.mac 	cqiDlTxDiv0:lteAvg 	15
attr source  cqiDlTxDiv0
attr title  "Average cqi TxDiv band 0, lteAvg"
attr unit  cqi
scalar Scenario_TestCaseAltered.eNodeB.nic.mac 	cqiDlTxDiv0:lteAvg 	15
attr source  cqiDlTxDiv0
attr title  "Average cqi TxDiv band 0, lteAvg"
attr unit  cqi
scalar Scenario_TestCaseAltered.eNodeB.nic.mac 	cqiDlSpmux0:lteAvg 	15
attr source  cqiDlSpmux0
attr title  "Average cqi Spmux band 0, lteAvg"
attr unit  cqi
scalar Scenario_TestCaseAltered.eNodeB.nic.mac 	cqiDlSpmux0:lteAvg 	15
attr source  cqiDlSpmux0
attr title  "Average cqi Spmux band 0, lteAvg"
attr unit  cqi
scalar Scenario_TestCaseAltered.eNodeB.nic.mac 	cqiDlSpmux0:lteAvg 	15
attr source  cqiDlSpmux0
attr title  "Average cqi Spmux band 0, lteAvg"
attr unit  cqi
scalar Scenario_TestCaseAltered.eNodeB.nic.mac 	cqiDlSpmux0:lteAvg 	15
attr source  cqiDlSpmux0
attr title  "Average cqi Spmux band 0, lteAvg"
attr unit  cqi
scalar Scenario_TestCaseAltered.eNodeB.nic.mac 	cqiDlSpmux0:lteAvg 	15
attr source  cqiDlSpmux0
attr title  "Average cqi Spmux band 0, lteAvg"
attr unit  cqi
scalar Scenario_TestCaseAltered.eNodeB.nic.mac 	cqiDlSpmux0:lteAvg 	15
attr source  cqiDlSpmux0
attr title  "Average cqi Spmux band 0, lteAvg"
attr unit  cqi
scalar Scenario_TestCaseAltered.eNodeB.nic.mac 	cqiDlSpmux0:lteAvg 	15
attr source  cqiDlSpmux0
attr title  "Average cqi Spmux band 0, lteAvg"
attr unit  cqi
scalar Scenario_TestCaseAltered.eNodeB.nic.mac 	cqiDlSpmux0:lteAvg 	15
attr source  cqiDlSpmux0
attr title  "Average cqi Spmux band 0, lteAvg"
attr unit  cqi
scalar Scenario_TestCaseAltered.eNodeB.nic.mac 	cqiDlSpmux0:lteAvg 	15
attr source  cqiDlSpmux0
attr title  "Average cqi Spmux band 0, lteAvg"
attr unit  cqi
scalar Scenario_TestCaseAltered.eNodeB.nic.mac 	cqiDlSpmux0:lteAvg 	15
attr source  cqiDlSpmux0
attr title  "Average cqi Spmux band 0, lteAvg"
attr unit  cqi
scalar Scenario_TestCaseAltered.eNodeB.nic.mac 	cqiDlSpmux0:lteAvg 	15
attr source  cqiDlSpmux0
attr title  "Average cqi Spmux band 0, lteAvg"
attr unit  cqi
scalar Scenario_TestCaseAltered.eNodeB.nic.mac 	cqiDlSpmux0:lteAvg 	15
attr source  cqiDlSpmux0
attr title  "Average cqi Spmux band 0, lteAvg"
attr unit  cqi
scalar Scenario_TestCaseAltered.eNodeB.nic.mac 	cqiDlSpmux0:lteAvg 	15
attr source  cqiDlSpmux0
attr title  "Average cqi Spmux band 0, lteAvg"
attr unit  cqi
scalar Scenario_TestCaseAltered.eNodeB.nic.mac 	cqiDlSpmux0:lteAvg 	15
attr source  cqiDlSpmux0
attr title  "Average cqi Spmux band 0, lteAvg"
attr unit  cqi
scalar Scenario_TestCaseAltered.eNodeB.nic.mac 	cqiDlSpmux0:lteAvg 	15
attr source  cqiDlSpmux0
attr title  "Average cqi Spmux band 0, lteAvg"
attr unit  cqi
scalar Scenario_TestCaseAltered.eNodeB.nic.mac 	cqiDlSpmux0:lteAvg 	15
attr source  cqiDlSpmux0
attr title  "Average cqi Spmux band 0, lteAvg"
attr unit  cqi
scalar Scenario_TestCaseAltered.eNodeB.nic.mac 	cqiDlSpmux0:lteAvg 	15
attr source  cqiDlSpmux0
attr title  "Average cqi Spmux band 0, lteAvg"
attr unit  cqi
scalar Scenario_TestCaseAltered.eNodeB.nic.mac 	cqiDlSpmux0:lteAvg 	15
attr source  cqiDlSpmux0
attr title  "Average cqi Spmux band 0, lteAvg"
attr unit  cqi
scalar Scenario_TestCaseAltered.eNodeB.nic.mac 	cqiDlSpmux0:lteAvg 	15
attr source  cqiDlSpmux0
attr title  "Average cqi Spmux band 0, lteAvg"
attr unit  cqi
scalar Scenario_TestCaseAltered.eNodeB.nic.mac 	cqiDlSpmux0:lteAvg 	15
attr source  cqiDlSpmux0
attr title  "Average cqi Spmux band 0, lteAvg"
attr unit  cqi
scalar Scenario_TestCaseAltered.eNodeB.nic.mac 	cqiDlSpmux0:lteAvg 	15
attr source  cqiDlSpmux0
attr title  "Average cqi Spmux band 0, lteAvg"
attr unit  cqi
scalar Scenario_TestCaseAltered.eNodeB.nic.mac 	cqiDlSpmux0:lteAvg 	15
attr source  cqiDlSpmux0
attr title  "Average cqi Spmux band 0, lteAvg"
attr unit  cqi
scalar Scenario_TestCaseAltered.eNodeB.nic.mac 	cqiDlSpmux0:lteAvg 	15
attr source  cqiDlSpmux0
attr title  "Average cqi Spmux band 0, lteAvg"
attr unit  cqi
scalar Scenario_TestCaseAltered.eNodeB.nic.mac 	cqiDlSpmux0:lteAvg 	15
attr source  cqiDlSpmux0
attr title  "Average cqi Spmux band 0, lteAvg"
attr unit  cqi
scalar Scenario_TestCaseAltered.eNodeB.nic.mac 	cqiDlSpmux0:lteAvg 	15
attr source  cqiDlSpmux0
attr title  "Average cqi Spmux band 0, lteAvg"
attr unit  cqi
scalar Scenario_TestCaseAltered.eNodeB.nic.mac 	cqiDlSpmux0:lteAvg 	15
attr source  cqiDlSpmux0
attr title  "Average cqi Spmux band 0, lteAvg"
attr unit  cqi
scalar Scenario_TestCaseAltered.eNodeB.nic.mac 	cqiDlSpmux0:lteAvg 	15
attr source  cqiDlSpmux0
attr title  "Average cqi Spmux band 0, lteAvg"
attr unit  cqi
scalar Scenario_TestCaseAltered.eNodeB.nic.mac 	cqiDlSpmux0:lteAvg 	15
attr source  cqiDlSpmux0
attr title  "Average cqi Spmux band 0, lteAvg"
attr unit  cqi
scalar Scenario_TestCaseAltered.eNodeB.nic.mac 	cqiDlSpmux0:lteAvg 	15
attr source  cqiDlSpmux0
attr title  "Average cqi Spmux band 0, lteAvg"
attr unit  cqi
scalar Scenario_TestCaseAltered.eNodeB.nic.mac 	cqiDlSpmux0:lteAvg 	15
attr source  cqiDlSpmux0
attr title  "Average cqi Spmux band 0, lteAvg"
attr unit  cqi
scalar Scenario_TestCaseAltered.eNodeB.nic.mac 	cqiDlSpmux0:lteAvg 	15
attr source  cqiDlSpmux0
attr title  "Average cqi Spmux band 0, lteAvg"
attr unit  cqi
scalar Scenario_TestCaseAltered.eNodeB.nic.mac 	cqiDlSpmux0:lteAvg 	15
attr source  cqiDlSpmux0
attr title  "Average cqi Spmux band 0, lteAvg"
attr unit  cqi
scalar Scenario_TestCaseAltered.eNodeB.nic.mac 	cqiDlSpmux0:lteAvg 	15
attr source  cqiDlSpmux0
attr title  "Average cqi Spmux band 0, lteAvg"
attr unit  cqi
scalar Scenario_TestCaseAltered.eNodeB.nic.mac 	cqiDlSpmux0:lteAvg 	15
attr source  cqiDlSpmux0
attr title  "Average cqi Spmux band 0, lteAvg"
attr unit  cqi
scalar Scenario_TestCaseAltered.eNodeB.nic.mac 	cqiDlSpmux0:lteAvg 	15
attr source  cqiDlSpmux0
attr title  "Average cqi Spmux band 0, lteAvg"
attr unit  cqi
scalar Scenario_TestCaseAltered.eNodeB.nic.mac 	cqiDlSiso0:lteAvg 	15
attr source  cqiDlSiso0
attr title  "Average cqi siso band 0, lteAvg"
attr unit  cqi
scalar Scenario_TestCaseAltered.eNodeB.nic.mac 	cqiDlSiso0:lteAvg 	15
attr source  cqiDlSiso0
attr title  "Average cqi siso band 0, lteAvg"
attr unit  cqi
scalar Scenario_TestCaseAltered.eNodeB.nic.mac 	cqiDlSiso0:lteAvg 	15
attr source  cqiDlSiso0
attr title  "Average cqi siso band 0, lteAvg"
attr unit  cqi
scalar Scenario_TestCaseAltered.eNodeB.nic.mac 	cqiDlSiso0:lteAvg 	15
attr source  cqiDlSiso0
attr title  "Average cqi siso band 0, lteAvg"
attr unit  cqi
scalar Scenario_TestCaseAltered.eNodeB.nic.mac 	cqiDlSiso0:lteAvg 	15
attr source  cqiDlSiso0
attr title  "Average cqi siso band 0, lteAvg"
attr unit  cqi
scalar Scenario_TestCaseAltered.eNodeB.nic.mac 	cqiDlSiso0:lteAvg 	15
attr source  cqiDlSiso0
attr title  "Average cqi siso band 0, lteAvg"
attr unit  cqi
scalar Scenario_TestCaseAltered.eNodeB.nic.mac 	cqiDlSiso0:lteAvg 	15
attr source  cqiDlSiso0
attr title  "Average cqi siso band 0, lteAvg"
attr unit  cqi
scalar Scenario_TestCaseAltered.eNodeB.nic.mac 	cqiDlSiso0:lteAvg 	15
attr source  cqiDlSiso0
attr title  "Average cqi siso band 0, lteAvg"
attr unit  cqi
scalar Scenario_TestCaseAltered.eNodeB.nic.mac 	cqiDlSiso0:lteAvg 	15
attr source  cqiDlSiso0
attr title  "Average cqi siso band 0, lteAvg"
attr unit  cqi
scalar Scenario_TestCaseAltered.eNodeB.nic.mac 	cqiDlSiso0:lteAvg 	15
attr source  cqiDlSiso0
attr title  "Average cqi siso band 0, lteAvg"
attr unit  cqi
scalar Scenario_TestCaseAltered.eNodeB.nic.mac 	cqiDlSiso0:lteAvg 	15
attr source  cqiDlSiso0
attr title  "Average cqi siso band 0, lteAvg"
attr unit  cqi
scalar Scenario_TestCaseAltered.eNodeB.nic.mac 	cqiDlSiso0:lteAvg 	15
attr source  cqiDlSiso0
attr title  "Average cqi siso band 0, lteAvg"
attr unit  cqi
scalar Scenario_TestCaseAltered.eNodeB.nic.mac 	cqiDlSiso0:lteAvg 	15
attr source  cqiDlSiso0
attr title  "Average cqi siso band 0, lteAvg"
attr unit  cqi
scalar Scenario_TestCaseAltered.eNodeB.nic.mac 	cqiDlSiso0:lteAvg 	15
attr source  cqiDlSiso0
attr title  "Average cqi siso band 0, lteAvg"
attr unit  cqi
scalar Scenario_TestCaseAltered.eNodeB.nic.mac 	cqiDlSiso0:lteAvg 	15
attr source  cqiDlSiso0
attr title  "Average cqi siso band 0, lteAvg"
attr unit  cqi
scalar Scenario_TestCaseAltered.eNodeB.nic.mac 	cqiDlSiso0:lteAvg 	15
attr source  cqiDlSiso0
attr title  "Average cqi siso band 0, lteAvg"
attr unit  cqi
scalar Scenario_TestCaseAltered.eNodeB.nic.mac 	cqiDlSiso0:lteAvg 	15
attr source  cqiDlSiso0
attr title  "Average cqi siso band 0, lteAvg"
attr unit  cqi
scalar Scenario_TestCaseAltered.eNodeB.nic.mac 	cqiDlSiso0:lteAvg 	15
attr source  cqiDlSiso0
attr title  "Average cqi siso band 0, lteAvg"
attr unit  cqi
scalar Scenario_TestCaseAltered.eNodeB.nic.mac 	cqiDlSiso0:lteAvg 	15
attr source  cqiDlSiso0
attr title  "Average cqi siso band 0, lteAvg"
attr unit  cqi
scalar Scenario_TestCaseAltered.eNodeB.nic.mac 	cqiDlSiso0:lteAvg 	15
attr source  cqiDlSiso0
attr title  "Average cqi siso band 0, lteAvg"
attr unit  cqi
scalar Scenario_TestCaseAltered.eNodeB.nic.mac 	cqiDlSiso0:lteAvg 	15
attr source  cqiDlSiso0
attr title  "Average cqi siso band 0, lteAvg"
attr unit  cqi
scalar Scenario_TestCaseAltered.eNodeB.nic.mac 	cqiDlSiso0:lteAvg 	15
attr source  cqiDlSiso0
attr title  "Average cqi siso band 0, lteAvg"
attr unit  cqi
scalar Scenario_TestCaseAltered.eNodeB.nic.mac 	cqiDlSiso0:lteAvg 	15
attr source  cqiDlSiso0
attr title  "Average cqi siso band 0, lteAvg"
attr unit  cqi
scalar Scenario_TestCaseAltered.eNodeB.nic.mac 	cqiDlSiso0:lteAvg 	15
attr source  cqiDlSiso0
attr title  "Average cqi siso band 0, lteAvg"
attr unit  cqi
scalar Scenario_TestCaseAltered.eNodeB.nic.mac 	cqiDlSiso0:lteAvg 	15
attr source  cqiDlSiso0
attr title  "Average cqi siso band 0, lteAvg"
attr unit  cqi
scalar Scenario_TestCaseAltered.eNodeB.nic.mac 	cqiDlSiso0:lteAvg 	15
attr source  cqiDlSiso0
attr title  "Average cqi siso band 0, lteAvg"
attr unit  cqi
scalar Scenario_TestCaseAltered.eNodeB.nic.mac 	cqiDlSiso0:lteAvg 	15
attr source  cqiDlSiso0
attr title  "Average cqi siso band 0, lteAvg"
attr unit  cqi
scalar Scenario_TestCaseAltered.eNodeB.nic.mac 	cqiDlSiso0:lteAvg 	15
attr source  cqiDlSiso0
attr title  "Average cqi siso band 0, lteAvg"
attr unit  cqi
scalar Scenario_TestCaseAltered.eNodeB.nic.mac 	cqiDlSiso0:lteAvg 	15
attr source  cqiDlSiso0
attr title  "Average cqi siso band 0, lteAvg"
attr unit  cqi
scalar Scenario_TestCaseAltered.eNodeB.nic.mac 	cqiDlSiso0:lteAvg 	15
attr source  cqiDlSiso0
attr title  "Average cqi siso band 0, lteAvg"
attr unit  cqi
scalar Scenario_TestCaseAltered.eNodeB.nic.mac 	cqiDlSiso0:lteAvg 	15
attr source  cqiDlSiso0
attr title  "Average cqi siso band 0, lteAvg"
attr unit  cqi
scalar Scenario_TestCaseAltered.eNodeB.nic.mac 	cqiDlSiso0:lteAvg 	15
attr source  cqiDlSiso0
attr title  "Average cqi siso band 0, lteAvg"
attr unit  cqi
scalar Scenario_TestCaseAltered.eNodeB.nic.mac 	cqiDlSiso0:lteAvg 	15
attr source  cqiDlSiso0
attr title  "Average cqi siso band 0, lteAvg"
attr unit  cqi
scalar Scenario_TestCaseAltered.eNodeB.nic.mac 	cqiDlSiso0:lteAvg 	15
attr source  cqiDlSiso0
attr title  "Average cqi siso band 0, lteAvg"
attr unit  cqi
scalar Scenario_TestCaseAltered.eNodeB.nic.mac 	cqiDlSiso0:lteAvg 	15
attr source  cqiDlSiso0
attr title  "Average cqi siso band 0, lteAvg"
attr unit  cqi
scalar Scenario_TestCaseAltered.eNodeB.nic.mac 	depletedPowerUl:lteAvg 	0
attr source  depletedPowerUl
attr title  "LTE ENodeB depleted power Ul, lteAvg"
attr unit  watts
scalar Scenario_TestCaseAltered.eNodeB.nic.mac 	depletedPowerDl:lteAvg 	260.28076538436
attr source  depletedPowerDl
attr title  "LTE ENodeB depleted power Dl, lteAvg"
attr unit  watts
scalar Scenario_TestCaseAltered.eNodeB.nic.mac 	avgServedBlocksUl:lteAvg 	0.95273018201213
attr source  avgServedBlocksUl
attr title  "LTE Avg Served Blocks Ul, lteAvg"
attr unit  blocks
scalar Scenario_TestCaseAltered.eNodeB.nic.mac 	avgServedBlocksDl:lteAvg 	0.074671644776318
attr source  avgServedBlocksDl
attr title  "LTE Avg Served Blocks Dl, lteAvg"
attr unit  blocks
scalar Scenario_TestCaseAltered.eNodeB.nic.mac 	cellBlocksUtilizationUl:lteAvg 	0.15878836366869
attr source  cellBlocksUtilizationUl
attr title  "LTE Cell Blocks Utilization Ul, lteAvg"
attr unit  blocks
scalar Scenario_TestCaseAltered.eNodeB.nic.mac 	cellBlocksUtilizationDl:lteAvg 	0.012445274129386
attr source  cellBlocksUtilizationDl
attr title  "LTE Cell Blocks Utilization Dl, lteAvg"
attr unit  blocks
scalar Scenario_TestCaseAltered.eNodeB.nic.mac 	measuredItbs:mean 	26
attr source  measuredItbs
attr title  "TBS index, mean"
attr unit  ""
scalar Scenario_TestCaseAltered.eNodeB.nic.mac 	harqErrorRate_4th_D2D:mean 	-nan
attr source  harqErrorRate_4th_D2D
attr title  "Harq Error Rate D2D, mean"
attr unit  ""
scalar Scenario_TestCaseAltered.eNodeB.nic.mac 	harqErrorRate_4th_Dl:mean 	-nan
attr source  harqErrorRate_4th_Dl
attr title  "Harq Error Rate Dl, mean"
attr unit  ""
scalar Scenario_TestCaseAltered.eNodeB.nic.mac 	harqErrorRate_4th_Ul:mean 	-nan
attr source  harqErrorRate_4th_Ul
attr title  "Harq Error Rate Ul, mean"
attr unit  ""
scalar Scenario_TestCaseAltered.eNodeB.nic.mac 	harqErrorRate_3rd_D2D:mean 	-nan
attr source  harqErrorRate_3rd_D2D
attr title  "Harq Error Rate D2D, mean"
attr unit  ""
scalar Scenario_TestCaseAltered.eNodeB.nic.mac 	harqErrorRate_3rd_Dl:mean 	-nan
attr source  harqErrorRate_3rd_Dl
attr title  "Harq Error Rate Dl, mean"
attr unit  ""
scalar Scenario_TestCaseAltered.eNodeB.nic.mac 	harqErrorRate_3rd_Ul:mean 	-nan
attr source  harqErrorRate_3rd_Ul
attr title  "Harq Error Rate Ul, mean"
attr unit  ""
scalar Scenario_TestCaseAltered.eNodeB.nic.mac 	harqErrorRate_2nd_D2D:mean 	-nan
attr source  harqErrorRate_2nd_D2D
attr title  "Harq Error Rate D2D, mean"
attr unit  ""
scalar Scenario_TestCaseAltered.eNodeB.nic.mac 	harqErrorRate_2nd_Dl:mean 	-nan
attr source  harqErrorRate_2nd_Dl
attr title  "Harq Error Rate Dl, mean"
attr unit  ""
scalar Scenario_TestCaseAltered.eNodeB.nic.mac 	harqErrorRate_2nd_Ul:mean 	-nan
attr source  harqErrorRate_2nd_Ul
attr title  "Harq Error Rate Ul, mean"
attr unit  ""
scalar Scenario_TestCaseAltered.eNodeB.nic.mac 	harqErrorRate_1st_D2D:mean 	-nan
attr source  harqErrorRate_1st_D2D
attr title  "Harq Error Rate D2D, mean"
attr unit  ""
scalar Scenario_TestCaseAltered.eNodeB.nic.mac 	harqErrorRate_1st_Dl:mean 	-nan
attr source  harqErrorRate_1st_Dl
attr title  "Harq Error Rate Dl, mean"
attr unit  ""
[...]
attr title  "Throughput at the MAC layer DL, lteRate"
attr unit  Bps
scalar Scenario_TestCaseAltered.ueMal[24].nic.mac 	macDelayDl:lteAvg 	0.004
attr source  macDelayDl
attr title  "Delay at the MAC layer UL, lteAvg"
attr unit  s
scalar Scenario_TestCaseAltered.ueMal[24].nic.mac 	sentPacketToLowerLayer:count 	128
attr interpolationmode  none
attr source  sentPacketToLowerLayer
scalar Scenario_TestCaseAltered.ueMal[24].nic.mac 	sentPacketToLowerLayer:sum(packetBytes) 	0
attr interpolationmode  none
attr source  sentPacketToLowerLayer
scalar Scenario_TestCaseAltered.ueMal[24].nic.mac 	sentPacketToUpperLayer:count 	41
attr interpolationmode  none
attr source  sentPacketToUpperLayer
scalar Scenario_TestCaseAltered.ueMal[24].nic.mac 	sentPacketToUpperLayer:sum(packetBytes) 	1222
attr interpolationmode  none
attr source  sentPacketToUpperLayer
scalar Scenario_TestCaseAltered.ueMal[24].nic.mac 	receivedPacketFromLowerLayer:count 	143
attr interpolationmode  none
attr source  receivedPacketFromLowerLayer
scalar Scenario_TestCaseAltered.ueMal[24].nic.mac 	receivedPacketFromLowerLayer:sum(packetBytes) 	0
attr interpolationmode  none
attr source  receivedPacketFromLowerLayer
scalar Scenario_TestCaseAltered.ueMal[24].nic.mac 	receivedPacketFromUpperLayer:count 	30
attr interpolationmode  none
attr source  receivedPacketFromUpperLayer
scalar Scenario_TestCaseAltered.ueMal[24].nic.mac 	receivedPacketFromUpperLayer:sum(packetBytes) 	1380
attr interpolationmode  none
attr source  receivedPacketFromUpperLayer
scalar Scenario_TestCaseAltered.ueMal[24].nic.mac 	averageCqiDl:lteAvg 	15
attr source  averageCqiDl
attr title  "Average Cqi reported in DL, lteAvg"
attr unit  cqi
scalar Scenario_TestCaseAltered.ueMal[24].networkLayer.arp 	failedARPResolution:count 	0
attr title  "ARP failed resolutions, count"
scalar Scenario_TestCaseAltered.ueMal[24].networkLayer.arp 	completedARPResolution:count 	0
attr title  "ARP completed resolutions, count"
scalar Scenario_TestCaseAltered.ueMal[24].networkLayer.arp 	initiatedARPResolution:count 	0
attr title  "ARP initiated resolutions, count"
scalar Scenario_TestCaseAltered.ueMal[24].networkLayer.arp 	sentReply:count 	0
attr title  "ARP replies sent, count"
scalar Scenario_TestCaseAltered.ueMal[24].networkLayer.arp 	sentReq:count 	0
attr title  "ARP request sent, count"
scalar Scenario_TestCaseAltered.clientG1[0].networkLayer.arp 	failedARPResolution:count 	0
attr title  "ARP failed resolutions, count"
scalar Scenario_TestCaseAltered.clientG1[0].networkLayer.arp 	completedARPResolution:count 	0
attr title  "ARP completed resolutions, count"
scalar Scenario_TestCaseAltered.clientG1[0].networkLayer.arp 	initiatedARPResolution:count 	0
attr title  "ARP initiated resolutions, count"
scalar Scenario_TestCaseAltered.clientG1[0].networkLayer.arp 	sentReply:count 	0
attr title  "ARP replies sent, count"
scalar Scenario_TestCaseAltered.clientG1[0].networkLayer.arp 	sentReq:count 	0
attr title  "ARP request sent, count"
scalar Scenario_TestCaseAltered.clientG1[0].lo0.lo 	droppedPkBitError:count 	0
attr interpolationmode  none
attr source  dropPkBitError
attr title  "packets dropped/bit error, count"
scalar Scenario_TestCaseAltered.clientG1[0].lo0.lo 	droppedPkBitError:sum(packetBytes) 	0
attr interpolationmode  none
attr source  dropPkBitError
attr title  "packets dropped/bit error, sum(packetBytes)"
scalar Scenario_TestCaseAltered.clientG1[0].lo0.lo 	rcvdPkFromHL:count 	0
attr interpolationmode  none
attr source  packetReceivedFromUpper
attr title  "packets received from higher layer, count"
scalar Scenario_TestCaseAltered.clientG1[0].lo0.lo 	rcvdPkFromHL:sum(packetBytes) 	0
attr interpolationmode  none
attr source  packetReceivedFromUpper
attr title  "packets received from higher layer, sum(packetBytes)"
scalar Scenario_TestCaseAltered.clientG1[0].lo0.lo 	passedUpPk:count 	0
attr interpolationmode  none
attr source  packetSentToUpper
attr title  "packets passed to higher layer, count"
scalar Scenario_TestCaseAltered.clientG1[0].lo0.lo 	passedUpPk:sum(packetBytes) 	0
attr interpolationmode  none
attr source  packetSentToUpper
attr title  "packets passed to higher layer, sum(packetBytes)"
scalar Scenario_TestCaseAltered.clientG1[0].eth[0].mac 	"simulated time" 	14.999
scalar Scenario_TestCaseAltered.clientG1[0].eth[0].mac 	full-duplex 	1
scalar Scenario_TestCaseAltered.clientG1[0].eth[0].mac 	"frames/sec sent" 	0
scalar Scenario_TestCaseAltered.clientG1[0].eth[0].mac 	"frames/sec rcvd" 	0.066671111407427
scalar Scenario_TestCaseAltered.clientG1[0].eth[0].mac 	"bits/sec sent" 	0
scalar Scenario_TestCaseAltered.clientG1[0].eth[0].mac 	"bits/sec rcvd" 	34.135609040603
scalar Scenario_TestCaseAltered.clientG1[0].eth[0].mac 	"rx channel idle (%)" 	99.99996159744
scalar Scenario_TestCaseAltered.clientG1[0].eth[0].mac 	"rx channel utilization (%)" 	3.8402560170678e-05
scalar Scenario_TestCaseAltered.clientG1[0].eth[0].mac 	droppedPkNotForUs:count 	0
attr interpolationmode  none
attr source  dropPkNotForUs
attr title  "packets dropped/not for us, count"
scalar Scenario_TestCaseAltered.clientG1[0].eth[0].mac 	droppedPkNotForUs:sum(packetBytes) 	0
attr interpolationmode  none
attr source  dropPkNotForUs
attr title  "packets dropped/not for us, sum(packetBytes)"
scalar Scenario_TestCaseAltered.clientG1[0].eth[0].mac 	droppedPkIfaceDown:count 	0
attr interpolationmode  none
attr source  dropPkIfaceDown
attr title  "packets dropped/interface down, count"
scalar Scenario_TestCaseAltered.clientG1[0].eth[0].mac 	droppedPkIfaceDown:sum(packetBytes) 	0
attr interpolationmode  none
attr source  dropPkIfaceDown
attr title  "packets dropped/interface down, sum(packetBytes)"
scalar Scenario_TestCaseAltered.clientG1[0].eth[0].mac 	droppedPkBitError:count 	0
attr interpolationmode  none
attr source  dropPkBitError
attr title  "packets dropped/bit error, count"
scalar Scenario_TestCaseAltered.clientG1[0].eth[0].mac 	droppedPkBitError:sum(packetBytes) 	0
attr interpolationmode  none
attr source  dropPkBitError
attr title  "packets dropped/bit error, sum(packetBytes)"
scalar Scenario_TestCaseAltered.clientG1[0].eth[0].mac 	rxPkFromHL:count 	0
attr interpolationmode  none
attr source  rxPkFromHL
attr title  "packet bytes from higher layer, count"
scalar Scenario_TestCaseAltered.clientG1[0].eth[0].mac 	rxPkFromHL:sum(packetBytes) 	0
attr interpolationmode  none
attr source  rxPkFromHL
attr title  "packet bytes from higher layer, sum(packetBytes)"
scalar Scenario_TestCaseAltered.clientG1[0].eth[0].mac 	rxPausePkUnits:count 	0
attr interpolationmode  none
attr title  "pause units received, count"
scalar Scenario_TestCaseAltered.clientG1[0].eth[0].mac 	rxPausePkUnits:sum 	0
attr interpolationmode  none
attr title  "pause units received, sum"
scalar Scenario_TestCaseAltered.clientG1[0].eth[0].mac 	txPausePkUnits:count 	0
attr interpolationmode  none
attr title  "pause units sent, count"
scalar Scenario_TestCaseAltered.clientG1[0].eth[0].mac 	txPausePkUnits:sum 	0
attr interpolationmode  none
attr title  "pause units sent, sum"
scalar Scenario_TestCaseAltered.clientG1[0].eth[0].mac 	rxPkOk:count 	1
attr interpolationmode  none
attr source  rxPkOk
attr title  "packets received OK, count"
scalar Scenario_TestCaseAltered.clientG1[0].eth[0].mac 	rxPkOk:sum(packetBytes) 	64
attr interpolationmode  none
attr source  rxPkOk
attr title  "packets received OK, sum(packetBytes)"
scalar Scenario_TestCaseAltered.clientG1[0].eth[0].mac 	txPk:count 	0
attr interpolationmode  none
attr source  txPk
attr title  "packets transmitted, count"
scalar Scenario_TestCaseAltered.clientG1[0].eth[0].mac 	txPk:sum(packetBytes) 	0
attr interpolationmode  none
attr source  txPk
attr title  "packets transmitted, sum(packetBytes)"
scalar Scenario_TestCaseAltered.clientG1[0].eth[0].mac 	passedUpPk:count 	1
attr interpolationmode  none
attr source  packetSentToUpper
attr title  "packets passed to higher layer, count"
scalar Scenario_TestCaseAltered.clientG1[0].eth[0].mac 	passedUpPk:sum(packetBytes) 	64
attr interpolationmode  none
attr source  packetSentToUpper
attr title  "packets passed to higher layer, sum(packetBytes)"
scalar Scenario_TestCaseAltered.clientG1[0].eth[0].encap 	pauseSent:count 	0
attr title  "pause sent, count"
scalar Scenario_TestCaseAltered.clientG1[0].eth[0].encap 	pauseSent:sum 	0
attr title  "pause sent, sum"
scalar Scenario_TestCaseAltered.clientG1[0].eth[0].encap 	decapPk:count 	1
attr interpolationmode  none
attr source  decapPk
attr title  "packets decapsulated, count"
scalar Scenario_TestCaseAltered.clientG1[0].eth[0].encap 	decapPk:sum(packetBytes) 	28
attr interpolationmode  none
attr source  decapPk
attr title  "packets decapsulated, sum(packetBytes)"
scalar Scenario_TestCaseAltered.clientG1[0].eth[0].encap 	encapPk:count 	0
attr interpolationmode  none
attr source  encapPk
attr title  "packets encapsulated, count"
scalar Scenario_TestCaseAltered.clientG1[0].eth[0].encap 	encapPk:sum(packetBytes) 	0
attr interpolationmode  none
attr source  encapPk
attr title  "packets encapsulated, sum(packetBytes)"
scalar Scenario_TestCaseAltered.router.networkLayer.arp 	failedARPResolution:count 	0
attr title  "ARP failed resolutions, count"
scalar Scenario_TestCaseAltered.router.networkLayer.arp 	completedARPResolution:count 	1
attr title  "ARP completed resolutions, count"
scalar Scenario_TestCaseAltered.router.networkLayer.arp 	initiatedARPResolution:count 	1
attr title  "ARP initiated resolutions, count"
scalar Scenario_TestCaseAltered.router.networkLayer.arp 	sentReply:count 	0
attr title  "ARP replies sent, count"
scalar Scenario_TestCaseAltered.router.networkLayer.arp 	sentReq:count 	1
attr title  "ARP request sent, count"
scalar Scenario_TestCaseAltered.router.lo0.lo 	droppedPkBitError:count 	0
attr interpolationmode  none
attr source  dropPkBitError
attr title  "packets dropped/bit error, count"
scalar Scenario_TestCaseAltered.router.lo0.lo 	droppedPkBitError:sum(packetBytes) 	0
attr interpolationmode  none
attr source  dropPkBitError
attr title  "packets dropped/bit error, sum(packetBytes)"
scalar Scenario_TestCaseAltered.router.lo0.lo 	rcvdPkFromHL:count 	0
attr interpolationmode  none
attr source  packetReceivedFromUpper
attr title  "packets received from higher layer, count"
scalar Scenario_TestCaseAltered.router.lo0.lo 	rcvdPkFromHL:sum(packetBytes) 	0
attr interpolationmode  none
attr source  packetReceivedFromUpper
attr title  "packets received from higher layer, sum(packetBytes)"
scalar Scenario_TestCaseAltered.router.lo0.lo 	passedUpPk:count 	0
attr interpolationmode  none
attr source  packetSentToUpper
attr title  "packets passed to higher layer, count"
scalar Scenario_TestCaseAltered.router.lo0.lo 	passedUpPk:sum(packetBytes) 	0
attr interpolationmode  none
attr source  packetSentToUpper
attr title  "packets passed to higher layer, sum(packetBytes)"
scalar Scenario_TestCaseAltered.router.eth[0].mac 	"simulated time" 	14.999
scalar Scenario_TestCaseAltered.router.eth[0].mac 	full-duplex 	1
scalar Scenario_TestCaseAltered.router.eth[0].mac 	"frames/sec sent" 	40.402693512901
scalar Scenario_TestCaseAltered.router.eth[0].mac 	"frames/sec rcvd" 	57.403826921795
scalar Scenario_TestCaseAltered.router.eth[0].mac 	"bits/sec sent" 	37007.267151143
scalar Scenario_TestCaseAltered.router.eth[0].mac 	"bits/sec rcvd" 	45711.847456497
scalar Scenario_TestCaseAltered.router.eth[0].mac 	"rx channel idle (%)" 	99.950614307754
scalar Scenario_TestCaseAltered.router.eth[0].mac 	"rx channel utilization (%)" 	0.04938569224615
scalar Scenario_TestCaseAltered.router.eth[0].mac 	droppedPkNotForUs:count 	0
attr interpolationmode  none
attr source  dropPkNotForUs
attr title  "packets dropped/not for us, count"
scalar Scenario_TestCaseAltered.router.eth[0].mac 	droppedPkNotForUs:sum(packetBytes) 	0
attr interpolationmode  none
attr source  dropPkNotForUs
attr title  "packets dropped/not for us, sum(packetBytes)"
scalar Scenario_TestCaseAltered.router.eth[0].mac 	droppedPkIfaceDown:count 	0
attr interpolationmode  none
attr source  dropPkIfaceDown
attr title  "packets dropped/interface down, count"
scalar Scenario_TestCaseAltered.router.eth[0].mac 	droppedPkIfaceDown:sum(packetBytes) 	0
attr interpolationmode  none
attr source  dropPkIfaceDown
attr title  "packets dropped/interface down, sum(packetBytes)"
scalar Scenario_TestCaseAltered.router.eth[0].mac 	droppedPkBitError:count 	0
attr interpolationmode  none
attr source  dropPkBitError
attr title  "packets dropped/bit error, count"
scalar Scenario_TestCaseAltered.router.eth[0].mac 	droppedPkBitError:sum(packetBytes) 	0
attr interpolationmode  none
attr source  dropPkBitError
attr title  "packets dropped/bit error, sum(packetBytes)"
scalar Scenario_TestCaseAltered.router.eth[0].mac 	rxPkFromHL:count 	606
attr interpolationmode  none
attr source  rxPkFromHL
attr title  "packet bytes from higher layer, count"
scalar Scenario_TestCaseAltered.router.eth[0].mac 	rxPkFromHL:sum(packetBytes) 	69384
attr interpolationmode  none
attr source  rxPkFromHL
attr title  "packet bytes from higher layer, sum(packetBytes)"
scalar Scenario_TestCaseAltered.router.eth[0].mac 	rxPausePkUnits:count 	0
attr interpolationmode  none
attr title  "pause units received, count"
scalar Scenario_TestCaseAltered.router.eth[0].mac 	rxPausePkUnits:sum 	0
attr interpolationmode  none
attr title  "pause units received, sum"
scalar Scenario_TestCaseAltered.router.eth[0].mac 	txPausePkUnits:count 	0
attr interpolationmode  none
attr title  "pause units sent, count"
scalar Scenario_TestCaseAltered.router.eth[0].mac 	txPausePkUnits:sum 	0
attr interpolationmode  none
attr title  "pause units sent, sum"
scalar Scenario_TestCaseAltered.router.eth[0].mac 	rxPkOk:count 	861
attr interpolationmode  none
attr source  rxPkOk
attr title  "packets received OK, count"
scalar Scenario_TestCaseAltered.router.eth[0].mac 	rxPkOk:sum(packetBytes) 	85704
attr interpolationmode  none
attr source  rxPkOk
attr title  "packets received OK, sum(packetBytes)"
scalar Scenario_TestCaseAltered.router.eth[0].mac 	txPk:count 	606
attr interpolationmode  none
attr source  txPk
attr title  "packets transmitted, count"
scalar Scenario_TestCaseAltered.router.eth[0].mac 	txPk:sum(packetBytes) 	69384
attr interpolationmode  none
attr source  txPk
attr title  "packets transmitted, sum(packetBytes)"
scalar Scenario_TestCaseAltered.router.eth[0].mac 	passedUpPk:count 	861
attr interpolationmode  none
attr source  packetSentToUpper
attr title  "packets passed to higher layer, count"
scalar Scenario_TestCaseAltered.router.eth[0].mac 	passedUpPk:sum(packetBytes) 	85704
attr interpolationmode  none
attr source  packetSentToUpper
attr title  "packets passed to higher layer, sum(packetBytes)"
scalar Scenario_TestCaseAltered.router.eth[0].encap 	pauseSent:count 	0
attr title  "pause sent, count"
scalar Scenario_TestCaseAltered.router.eth[0].encap 	pauseSent:sum 	0
attr title  "pause sent, sum"
scalar Scenario_TestCaseAltered.router.eth[0].encap 	decapPk:count 	861
attr interpolationmode  none
attr source  decapPk
attr title  "packets decapsulated, count"
scalar Scenario_TestCaseAltered.router.eth[0].encap 	decapPk:sum(packetBytes) 	68188
attr interpolationmode  none
attr source  decapPk
attr title  "packets decapsulated, sum(packetBytes)"
scalar Scenario_TestCaseAltered.router.eth[0].encap 	encapPk:count 	606
attr interpolationmode  none
attr source  encapPk
attr title  "packets encapsulated, count"
scalar Scenario_TestCaseAltered.router.eth[0].encap 	encapPk:sum(packetBytes) 	56888
attr interpolationmode  none
attr source  encapPk
attr title  "packets encapsulated, sum(packetBytes)"
scalar Scenario_TestCaseAltered.router.ppp[0].queue 	queueLength:max 	1
attr interpolationmode  sample-hold
attr title  "queue length, max"
scalar Scenario_TestCaseAltered.router.ppp[0].queue 	queueLength:timeavg 	6.0588040536036e-05
attr interpolationmode  sample-hold
attr title  "queue length, timeavg"
statistic Scenario_TestCaseAltered.router.ppp[0].queue 	queueingTime:histogram
field count 860
field mean 1.0566976976744e-06
field stddev 6.1600556534012e-06
field sum 0.00090876002
field sqrsum 3.35561439968e-08
field min 0
field max 3.9920001e-05
attr interpolationmode  none
attr title  "queueing time, histogram"
bin	-INF	0
bin	-1.99600005e-05	0
bin	-1.72986671e-05	0
bin	-1.46373337e-05	0
bin	-1.19760003e-05	0
bin	-9.3146669e-06	0
bin	-6.6533335e-06	0
bin	-3.9920001e-06	0
bin	-1.3306667e-06	831
bin	1.3306667e-06	0
bin	3.9920001e-06	0
bin	6.6533335e-06	5
bin	9.3146669e-06	0
bin	1.19760003e-05	0
bin	1.46373337e-05	0
bin	1.72986671e-05	4
bin	1.99600005e-05	0
bin	2.26213339e-05	0
bin	2.52826673e-05	0
bin	2.79440007e-05	0
bin	3.06053341e-05	0
bin	3.32666675e-05	0
bin	3.59280009e-05	0
bin	3.85893343e-05	20
bin	4.12506677e-05	0
bin	4.39120011e-05	0
bin	4.65733345e-05	0
bin	4.92346679e-05	0
bin	5.18960013e-05	0
bin	5.45573347e-05	0
bin	5.72186681e-05	0
bin	5.98800015e-05	0
scalar Scenario_TestCaseAltered.router.ppp[0].queue 	dropPk:count 	0
attr interpolationmode  none
attr source  dropPkByQueue
attr title  "dropped packets, count"
scalar Scenario_TestCaseAltered.router.ppp[0].queue 	dropPk:sum(packetBytes) 	0
attr interpolationmode  none
attr source  dropPkByQueue
attr title  "dropped packets, sum(packetBytes)"
scalar Scenario_TestCaseAltered.router.ppp[0].queue 	rcvdPk:count 	860
attr interpolationmode  none
attr title  "received packets, count"
scalar Scenario_TestCaseAltered.router.ppp[0].queue 	rcvdPk:sum(packetBytes) 	68160
attr interpolationmode  none
attr title  "received packets, sum(packetBytes)"
scalar Scenario_TestCaseAltered.router.ppp[0].ppp 	txState:timeavg 	0.00039565304353624
attr interpolationmode  sample-hold
attr title  "tx state, timeavg"
scalar Scenario_TestCaseAltered.router.ppp[0].ppp 	droppedPkIfaceDown:count 	0
attr interpolationmode  none
attr source  dropPkIfaceDown
attr title  "packets dropped/interface down, count"
scalar Scenario_TestCaseAltered.router.ppp[0].ppp 	droppedPkIfaceDown:sum(packetBytes) 	0
attr interpolationmode  none
attr source  dropPkIfaceDown
attr title  "packets dropped/interface down, sum(packetBytes)"
scalar Scenario_TestCaseAltered.router.ppp[0].ppp 	droppedPkBitError:count 	0
attr interpolationmode  none
attr source  dropPkBitError
attr title  "packets dropped/bit error, count"
scalar Scenario_TestCaseAltered.router.ppp[0].ppp 	droppedPkBitError:sum(packetBytes) 	0
attr interpolationmode  none
attr source  dropPkBitError
attr title  "packets dropped/bit error, sum(packetBytes)"
scalar Scenario_TestCaseAltered.router.ppp[0].ppp 	rxPkOk:count 	605
attr interpolationmode  none
attr source  rxPkOk
attr title  "packets received OK, count"
scalar Scenario_TestCaseAltered.router.ppp[0].ppp 	rxPkOk:sum(packetBytes) 	61095
attr interpolationmode  none
attr source  rxPkOk
attr title  "packets received OK, sum(packetBytes)"
scalar Scenario_TestCaseAltered.router.ppp[0].ppp 	rcvdPkFromHL:count 	860
attr interpolationmode  none
attr source  packetReceivedFromUpper
attr title  "packets received from higher layer, count"
scalar Scenario_TestCaseAltered.router.ppp[0].ppp 	rcvdPkFromHL:sum(packetBytes) 	68160
attr interpolationmode  none
attr source  packetReceivedFromUpper
attr title  "packets received from higher layer, sum(packetBytes)"
scalar Scenario_TestCaseAltered.router.ppp[0].ppp 	passedUpPk:count 	605
attr interpolationmode  none
attr source  packetSentToUpper
attr title  "packets passed to higher layer, count"
scalar Scenario_TestCaseAltered.router.ppp[0].ppp 	passedUpPk:sum(packetBytes) 	56860
attr interpolationmode  none
attr source  packetSentToUpper
attr title  "packets passed to higher layer, sum(packetBytes)"
scalar Scenario_TestCaseAltered.router.ppp[0].ppp 	txPk:count 	860
attr interpolationmode  none
attr source  packetSentToLower
attr title  "packets transmitted, count"
scalar Scenario_TestCaseAltered.router.ppp[0].ppp 	txPk:sum(packetBytes) 	74180
attr interpolationmode  none
attr source  packetSentToLower
attr title  "packets transmitted, sum(packetBytes)"
